LTspice 24.0.9 for Windows
Circuit: * C:\Users\Akane\Desktop\Assignments\Year 4\ELEC4123\Elective\CD4046Bg-Test.asc
Start Time: Tue Apr 14 17:16:31 2026
solver = Normal
Maximum thread count: 12
tnom = 27
temp = 27
method = modified trap
WARNING: Less than two connections to node n011.  This node is used by r2.
Direct Newton iteration for .op point succeeded.
Total elapsed time: 2.715 seconds.

