LTspice 24.0.9 for Windows
Circuit: * C:\Users\Akane\Desktop\Assignments\Year 4\ELEC4123\Elective\Draft1.asc
Start Time: Fri Apr 17 13:51:44 2026
solver = Normal
Maximum thread count: 12
tnom = 27
temp = 27
method = modified trap
v2: Removing PWL point (0.006,1)
v2: Removing PWL point (0.019,1)
v2: Removing PWL point (0.022,0)
WARNING: Node NC_01 is floating.

WARNING: Less than two connections to node nc_06.  This node is used by d:u1:3.
WARNING: Less than two connections to node vff.  This node is used by b1.
WARNING: Less than two connections to node bs.  This node is used by v2.
Direct Newton iteration for .op point succeeded.
Total elapsed time: 0.455 seconds.

