LTspice 24.0.9 for Windows
Circuit: * C:\Users\Akane\Desktop\Assignments\Year 4\ELEC4123\Elective\Draft5.asc
Start Time: Tue Apr 21 15:33:07 2026
solver = Normal
Maximum thread count: 12
tnom = 27
temp = 27
method = modified trap
v1: Removing PWL point (0.0001,0)
v1: Removing PWL point (0.0003,1)
v1: Removing PWL point (0.0005,0)
v1: Removing PWL point (0.000899,1)
v1: Removing PWL point (0.0013,0)
v1: Removing PWL point (0.0018,1)
v1: Removing PWL point (0.002,0)
v1: Removing PWL point (0.0023,0)
WARNING: Node NC_03 is floating.
WARNING: Node NC_07 is floating.

WARNING: Less than two connections to node bs.  This node is used by v1.
WARNING: Less than two connections to node vdd.  This node is used by v2.
WARNING: Less than two connections to node nc_03.  This node is used by a:u1:2.
WARNING: Less than two connections to node nc_14.  This node is used by d:u1:3.
Direct Newton iteration for .op point succeeded.
Heightened Def Con from 1.24082e-05 +++++++++++++++++++to 1.24092e-05
Heightened Def Con from 1.24092e-05 +++++++++++++++++++to 1.24102e-05
Heightened Def Con from 1.24102e-05 +++++++++++++++++++to 1.24112e-05
Heightened Def Con from 1.24112e-05 +++++++++++++++++++to 1.24122e-05
Heightened Def Con from 1.24122e-05 +++++++++++++++++++to 1.24132e-05
Heightened Def Con from 1.24132e-05 +++++++++++++++++++to 1.24142e-05
Heightened Def Con from 1.24142e-05 +++++++++++++++++++to 1.24152e-05
Heightened Def Con from 1.24152e-05 +++++++++++++++++++to 1.24162e-05
Heightened Def Con from 1.24162e-05 +++++++++++++++++++to 1.24172e-05
Heightened Def Con from 1.24172e-05 +++++++++++++++++++to 1.24182e-05
Heightened Def Con from 1.24182e-05 +++++++++++++++++++to 1.24192e-05
Heightened Def Con from 1.24192e-05 +++++++++++++++++++to 1.24202e-05
Heightened Def Con from 1.24202e-05 +++++++++++++++++++to 1.24212e-05
Heightened Def Con from 1.24212e-05 +++++++++++++++++++to 1.24222e-05
Heightened Def Con from 1.24222e-05 +++++++++++++++++++to 1.24232e-05
Heightened Def Con from 1.24232e-05 +++++++++++++++++++to 1.24242e-05
Heightened Def Con from 1.24242e-05 +++++++++++++++++++to 1.24252e-05
Heightened Def Con from 1.24252e-05 +++++++++++++++++++to 1.24262e-05
Heightened Def Con from 1.24262e-05 +++++++++++++++++++to 1.24272e-05
Heightened Def Con from 1.24272e-05 +++++++++++++++++++to 1.24282e-05
Heightened Def Con from 1.24282e-05 +++++++++++++++++++to 1.24292e-05
Heightened Def Con from 1.24292e-05 +++++++++++++++++++to 1.24302e-05
Heightened Def Con from 1.24302e-05 +++++++++++++++++++to 1.24312e-05
Heightened Def Con from 1.24312e-05 +++++++++++++++++++to 1.24322e-05
Heightened Def Con from 1.24322e-05 +++++++++++++++++++to 1.24332e-05
Heightened Def Con from 1.24332e-05 +++++++++++++++++++to 1.24342e-05
Heightened Def Con from 1.24342e-05 +++++++++++++++++++to 1.24352e-05
Heightened Def Con from 1.24352e-05 +++++++++++++++++++to 1.24362e-05
Heightened Def Con from 1.24362e-05 +++++++++++++++++++to 1.24372e-05
Heightened Def Con from 1.24372e-05 +++++++++++++++++++to 1.24382e-05
Heightened Def Con from 1.24382e-05 +++++++++++++++++++to 1.24392e-05
Heightened Def Con from 1.24392e-05 +++++++++++++++++++to 1.24402e-05
Heightened Def Con from 1.24402e-05 +++++++++++++++++++to 1.24412e-05
Heightened Def Con from 1.24412e-05 +++++++++++++++++++to 1.24422e-05
Heightened Def Con from 1.24422e-05 +++++++++++++++++++to 1.24432e-05
Heightened Def Con from 1.24432e-05 +++++++++++++++++++to 1.24442e-05
Heightened Def Con from 1.24442e-05 +++++++++++++++++++to 1.24452e-05
Heightened Def Con from 1.24452e-05 +++++++++++++++++++to 1.24462e-05
Heightened Def Con from 1.24462e-05 +++++++++++++++++++to 1.24472e-05
Heightened Def Con from 1.24472e-05 +++++++++++++++++++to 1.24482e-05
Heightened Def Con from 1.24482e-05 +++++++++++++++++++to 1.24492e-05
Heightened Def Con from 1.24492e-05 +++++++++++++++++++to 1.24502e-05
Heightened Def Con from 1.24502e-05 +++++++++++++++++++to 1.24512e-05
Heightened Def Con from 1.24512e-05 +++++++++++++++++++to 1.24522e-05
Heightened Def Con from 1.24522e-05 +++++++++++++++++++to 1.24532e-05
Heightened Def Con from 1.24532e-05 +++++++++++++++++++to 1.24542e-05
Heightened Def Con from 1.24542e-05 +++++++++++++++++++to 1.24552e-05
Heightened Def Con from 1.24552e-05 +++++++++++++++++++to 1.24562e-05
Heightened Def Con from 1.24562e-05 +++++++++++++++++++to 1.24572e-05
Heightened Def Con from 1.24572e-05 +++++++++++++++++++to 1.24592e-05
Heightened Def Con from 1.24592e-05 +++++++++++++++++++to 1.24602e-05
Heightened Def Con from 1.24602e-05 +++++++++++++++++++to 1.24612e-05
Heightened Def Con from 1.24612e-05 +++++++++++++++++++to 1.24622e-05
Heightened Def Con from 1.24622e-05 +++++++++++++++++++to 1.24632e-05
Heightened Def Con from 1.24632e-05 +++++++++++++++++++to 1.24642e-05
Heightened Def Con from 1.24642e-05 +++++++++++++++++++to 1.24652e-05
Heightened Def Con from 1.24652e-05 +++++++++++++++++++to 1.24662e-05
Heightened Def Con from 1.24662e-05 +++++++++++++++++++to 1.24672e-05
Heightened Def Con from 1.24672e-05 +++++++++++++++++++to 1.24682e-05
Heightened Def Con from 1.24682e-05 +++++++++++++++++++to 1.24692e-05
Heightened Def Con from 1.24692e-05 +++++++++++++++++++to 1.24702e-05
Heightened Def Con from 1.24702e-05 +++++++++++++++++++to 1.24712e-05
Heightened Def Con from 1.24712e-05 +++++++++++++++++++to 1.24722e-05
Heightened Def Con from 1.24722e-05 +++++++++++++++++++to 1.24732e-05
Heightened Def Con from 1.24732e-05 +++++++++++++++++++to 1.24742e-05
Heightened Def Con from 1.24742e-05 +++++++++++++++++++to 1.24752e-05
Heightened Def Con from 1.24752e-05 +++++++++++++++++++to 1.24762e-05
Heightened Def Con from 1.24762e-05 +++++++++++++++++++to 1.24772e-05
Heightened Def Con from 1.24772e-05 +++++++++++++++++++to 1.24782e-05
Heightened Def Con from 1.24782e-05 +++++++++++++++++++to 1.24792e-05
Heightened Def Con from 1.24792e-05 +++++++++++++++++++to 1.24802e-05
Heightened Def Con from 1.24802e-05 +++++++++++++++++++to 1.24812e-05
Heightened Def Con from 1.24812e-05 +++++++++++++++++++to 1.24822e-05
Heightened Def Con from 1.24822e-05 +++++++++++++++++++to 1.24832e-05
Heightened Def Con from 1.24832e-05 +++++++++++++++++++to 1.24842e-05
Heightened Def Con from 1.24842e-05 +++++++++++++++++++to 1.24852e-05
Heightened Def Con from 1.24852e-05 +++++++++++++++++++to 1.24862e-05
Heightened Def Con from 1.24862e-05 +++++++++++++++++++to 1.24872e-05
Heightened Def Con from 1.24872e-05 +++++++++++++++++++to 1.24882e-05
Heightened Def Con from 1.24882e-05 +++++++++++++++++++to 1.24892e-05
Heightened Def Con from 1.24892e-05 +++++++++++++++++++to 1.24902e-05
Heightened Def Con from 1.24902e-05 +++++++++++++++++++to 1.24912e-05
Heightened Def Con from 1.24912e-05 +++++++++++++++++++to 1.24922e-05
Heightened Def Con from 1.24922e-05 +++++++++++++++++++to 1.24932e-05
Heightened Def Con from 1.24932e-05 +++++++++++++++++++to 1.24942e-05
Heightened Def Con from 1.24942e-05 +++++++++++++++++++to 1.24952e-05
Heightened Def Con from 1.24952e-05 +++++++++++++++++++to 1.24962e-05
Heightened Def Con from 1.24962e-05 +++++++++++++++++++to 1.24972e-05
Heightened Def Con from 1.24972e-05 +++++++++++++++++++to 1.24982e-05
Heightened Def Con from 1.24982e-05 +++++++++++++++++++to 1.24992e-05
Heightened Def Con from 1.24992e-05 +++++++++++++++++++to 1.25002e-05
Heightened Def Con from 1.25002e-05 +++++++++++++++++++to 1.25012e-05
Heightened Def Con from 1.25012e-05 +++++++++++++++++++to 1.25022e-05
Heightened Def Con from 1.25022e-05 +++++++++++++++++++to 1.25032e-05
Heightened Def Con from 1.25032e-05 +++++++++++++++++++to 1.25042e-05
Heightened Def Con from 1.25042e-05 +++++++++++++++++++to 1.25052e-05
Heightened Def Con from 1.25052e-05 +++++++++++++++++++to 1.25062e-05
Heightened Def Con from 1.25062e-05 +++++++++++++++++++to 1.25072e-05
Heightened Def Con from 1.25072e-05 +++++++++++++++++++to 1.25082e-05
Heightened Def Con from 1.25082e-05 +++++++++++++++++++to 1.25092e-05
Heightened Def Con from 1.25092e-05 +++++++++++++++++++to 1.25102e-05
Heightened Def Con from 1.25102e-05 +++++++++++++++++++to 1.25112e-05
Heightened Def Con from 1.25112e-05 +++++++++++++++++++to 1.25122e-05
Heightened Def Con from 1.25122e-05 +++++++++++++++++++to 1.25132e-05
Heightened Def Con from 1.25132e-05 +++++++++++++++++++to 1.25142e-05
Heightened Def Con from 1.25142e-05 +++++++++++++++++++to 1.25152e-05
Heightened Def Con from 1.25152e-05 +++++++++++++++++++to 1.25162e-05
Heightened Def Con from 1.25162e-05 +++++++++++++++++++to 1.25172e-05
Heightened Def Con from 1.25172e-05 +++++++++++++++++++to 1.25182e-05
Heightened Def Con from 1.25182e-05 +++++++++++++++++++to 1.25192e-05
Heightened Def Con from 1.25192e-05 +++++++++++++++++++to 1.25202e-05
Heightened Def Con from 1.25202e-05 +++++++++++++++++++to 1.25212e-05
Heightened Def Con from 1.25212e-05 +++++++++++++++++++to 1.25222e-05
Heightened Def Con from 1.25222e-05 +++++++++++++++++++to 1.25232e-05
Heightened Def Con from 1.25232e-05 +++++++++++++++++++to 1.25242e-05
Heightened Def Con from 1.25242e-05 +++++++++++++++++++to 1.25252e-05
Heightened Def Con from 1.25252e-05 +++++++++++++++++++to 1.25262e-05
Heightened Def Con from 1.25262e-05 +++++++++++++++++++to 1.25272e-05
Heightened Def Con from 1.25272e-05 +++++++++++++++++++to 1.25282e-05
Heightened Def Con from 1.25282e-05 +++++++++++++++++++to 1.25292e-05
Heightened Def Con from 1.25292e-05 +++++++++++++++++++to 1.25302e-05
Heightened Def Con from 1.25302e-05 +++++++++++++++++++to 1.25312e-05
Heightened Def Con from 1.25312e-05 +++++++++++++++++++to 1.25322e-05
Heightened Def Con from 1.25322e-05 +++++++++++++++++++to 1.25332e-05
Heightened Def Con from 1.25332e-05 +++++++++++++++++++to 1.25342e-05
Heightened Def Con from 1.25342e-05 +++++++++++++++++++to 1.25352e-05
Heightened Def Con from 1.25352e-05 +++++++++++++++++++to 1.25362e-05
Heightened Def Con from 1.25362e-05 +++++++++++++++++++to 1.25372e-05
Heightened Def Con from 1.25372e-05 +++++++++++++++++++to 1.25382e-05
Heightened Def Con from 1.25382e-05 +++++++++++++++++++to 1.25392e-05
Heightened Def Con from 1.25392e-05 +++++++++++++++++++to 1.25402e-05
Heightened Def Con from 1.25402e-05 +++++++++++++++++++to 1.25412e-05
Heightened Def Con from 1.25412e-05 +++++++++++++++++++to 1.25422e-05
Heightened Def Con from 1.25422e-05 +++++++++++++++++++to 1.25432e-05
Heightened Def Con from 1.25432e-05 +++++++++++++++++++to 1.25442e-05
Heightened Def Con from 1.25442e-05 +++++++++++++++++++to 1.25452e-05
Heightened Def Con from 1.25452e-05 +++++++++++++++++++to 1.25462e-05
Heightened Def Con from 1.25462e-05 +++++++++++++++++++to 1.25472e-05
Heightened Def Con from 1.25472e-05 +++++++++++++++++++to 1.25482e-05
Heightened Def Con from 1.25482e-05 +++++++++++++++++++to 1.25492e-05
Heightened Def Con from 1.25492e-05 +++++++++++++++++++to 1.25502e-05
Heightened Def Con from 1.25502e-05 +++++++++++++++++++to 1.25512e-05
Heightened Def Con from 1.25512e-05 +++++++++++++++++++to 1.25522e-05
Heightened Def Con from 1.25522e-05 +++++++++++++++++++to 1.25532e-05
Heightened Def Con from 1.25532e-05 +++++++++++++++++++to 1.25542e-05
Heightened Def Con from 1.25542e-05 +++++++++++++++++++to 1.25552e-05
Heightened Def Con from 1.25552e-05 +++++++++++++++++++to 1.25562e-05
Heightened Def Con from 1.25562e-05 +++++++++++++++++++to 1.25572e-05
Heightened Def Con from 1.25572e-05 +++++++++++++++++++to 1.25582e-05
Heightened Def Con from 1.25582e-05 +++++++++++++++++++to 1.25592e-05
Heightened Def Con from 1.25592e-05 +++++++++++++++++++to 1.25602e-05
Heightened Def Con from 1.25602e-05 +++++++++++++++++++to 1.25612e-05
Heightened Def Con from 1.25612e-05 +++++++++++++++++++to 1.25622e-05
Heightened Def Con from 1.25622e-05 +++++++++++++++++++to 1.25632e-05
Heightened Def Con from 1.25632e-05 +++++++++++++++++++to 1.25642e-05
Heightened Def Con from 1.25642e-05 +++++++++++++++++++to 1.25652e-05
Heightened Def Con from 1.25652e-05 +++++++++++++++++++to 1.25662e-05
Heightened Def Con from 1.25662e-05 +++++++++++++++++++to 1.25672e-05
Heightened Def Con from 1.25672e-05 +++++++++++++++++++to 1.25682e-05
Heightened Def Con from 1.25682e-05 +++++++++++++++++++to 1.25692e-05
Heightened Def Con from 1.25692e-05 +++++++++++++++++++to 1.25702e-05
Heightened Def Con from 1.25702e-05 +++++++++++++++++++to 1.25712e-05
Heightened Def Con from 1.25712e-05 +++++++++++++++++++to 1.25722e-05
Heightened Def Con from 1.25722e-05 +++++++++++++++++++to 1.25732e-05
Heightened Def Con from 1.25732e-05 +++++++++++++++++++to 1.25742e-05
Heightened Def Con from 1.25742e-05 +++++++++++++++++++to 1.25752e-05
Heightened Def Con from 1.25752e-05 +++++++++++++++++++to 1.25762e-05
Heightened Def Con from 1.25762e-05 +++++++++++++++++++to 1.25772e-05
Heightened Def Con from 1.25772e-05 +++++++++++++++++++to 1.25782e-05
Heightened Def Con from 1.25782e-05 +++++++++++++++++++to 1.25792e-05
Heightened Def Con from 1.25792e-05 +++++++++++++++++++to 1.25802e-05
Heightened Def Con from 1.25802e-05 +++++++++++++++++++to 1.25812e-05
Heightened Def Con from 1.25812e-05 +++++++++++++++++++to 1.25822e-05
Heightened Def Con from 1.25822e-05 +++++++++++++++++++to 1.25832e-05
Heightened Def Con from 1.25832e-05 +++++++++++++++++++to 1.25842e-05
Heightened Def Con from 1.25842e-05 +++++++++++++++++++to 1.25852e-05
Heightened Def Con from 1.25852e-05 +++++++++++++++++++to 1.25862e-05
Heightened Def Con from 1.25862e-05 +++++++++++++++++++to 1.25872e-05
Heightened Def Con from 1.25872e-05 +++++++++++++++++++to 1.25882e-05
Heightened Def Con from 1.25882e-05 +++++++++++++++++++to 1.25892e-05
Heightened Def Con from 1.25892e-05 +++++++++++++++++++to 1.25902e-05
Heightened Def Con from 1.25902e-05 +++++++++++++++++++to 1.25912e-05
Heightened Def Con from 1.25912e-05 +++++++++++++++++++to 1.25922e-05
Heightened Def Con from 1.25922e-05 +++++++++++++++++++to 1.25932e-05
Heightened Def Con from 1.25932e-05 +++++++++++++++++++to 1.25942e-05
Heightened Def Con from 1.25942e-05 +++++++++++++++++++to 1.25952e-05
Heightened Def Con from 1.25952e-05 +++++++++++++++++++to 1.25962e-05
Heightened Def Con from 1.25962e-05 +++++++++++++++++++to 1.25972e-05
Heightened Def Con from 1.25972e-05 +++++++++++++++++++to 1.25982e-05
Heightened Def Con from 1.25982e-05 +++++++++++++++++++to 1.25992e-05
Heightened Def Con from 1.25992e-05 +++++++++++++++++++to 1.26002e-05
Heightened Def Con from 1.26002e-05 +++++++++++++++++++to 1.26012e-05
Heightened Def Con from 1.26012e-05 +++++++++++++++++++to 1.26022e-05
Heightened Def Con from 1.26022e-05 +++++++++++++++++++to 1.26032e-05
Heightened Def Con from 1.26032e-05 +++++++++++++++++++to 1.26042e-05
Heightened Def Con from 1.26042e-05 +++++++++++++++++++to 1.26052e-05
Heightened Def Con from 1.26052e-05 +++++++++++++++++++to 1.26062e-05
Heightened Def Con from 1.26062e-05 +++++++++++++++++++to 1.26072e-05
Heightened Def Con from 1.26072e-05 +++++++++++++++++++to 1.26082e-05
Heightened Def Con from 1.26082e-05 +++++++++++++++++++to 1.26092e-05
Heightened Def Con from 1.26092e-05 +++++++++++++++++++to 1.26102e-05
Heightened Def Con from 1.26102e-05 +++++++++++++++++++to 1.26112e-05
Heightened Def Con from 1.26112e-05 +++++++++++++++++++to 1.26122e-05
Heightened Def Con from 1.26122e-05 +++++++++++++++++++to 1.26132e-05
Heightened Def Con from 1.26132e-05 +++++++++++++++++++to 1.26142e-05
Heightened Def Con from 1.26142e-05 +++++++++++++++++++to 1.26152e-05
Heightened Def Con from 1.26152e-05 +++++++++++++++++++to 1.26162e-05
Heightened Def Con from 1.26162e-05 +++++++++++++++++++to 1.26172e-05
Heightened Def Con from 1.26172e-05 +++++++++++++++++++to 1.26182e-05
Heightened Def Con from 1.26182e-05 +++++++++++++++++++to 1.26192e-05
Heightened Def Con from 1.26192e-05 +++++++++++++++++++to 1.26202e-05
Heightened Def Con from 1.26202e-05 +++++++++++++++++++to 1.26212e-05
Heightened Def Con from 1.26212e-05 +++++++++++++++++++to 1.26222e-05
Heightened Def Con from 1.26222e-05 +++++++++++++++++++to 1.26232e-05
Heightened Def Con from 1.26232e-05 +++++++++++++++++++to 1.26242e-05
Heightened Def Con from 1.26242e-05 +++++++++++++++++++to 1.26252e-05
Heightened Def Con from 1.26252e-05 +++++++++++++++++++to 1.26262e-05
Heightened Def Con from 1.26262e-05 +++++++++++++++++++to 1.26272e-05
Heightened Def Con from 1.26272e-05 +++++++++++++++++++to 1.26282e-05
Heightened Def Con from 1.26282e-05 +++++++++++++++++++to 1.26292e-05
Heightened Def Con from 1.26292e-05 +++++++++++++++++++to 1.26302e-05
Heightened Def Con from 1.26302e-05 +++++++++++++++++++to 1.26312e-05
Heightened Def Con from 1.26312e-05 +++++++++++++++++++to 1.26322e-05
Heightened Def Con from 1.26322e-05 +++++++++++++++++++to 1.26332e-05
Heightened Def Con from 1.26332e-05 +++++++++++++++++++to 1.26342e-05
Heightened Def Con from 1.26342e-05 +++++++++++++++++++to 1.26352e-05
Heightened Def Con from 1.26352e-05 +++++++++++++++++++to 1.26362e-05
Heightened Def Con from 1.26362e-05 +++++++++++++++++++to 1.26372e-05
Heightened Def Con from 1.26372e-05 +++++++++++++++++++to 1.26382e-05
Heightened Def Con from 1.26382e-05 +++++++++++++++++++to 1.26392e-05
Heightened Def Con from 1.26392e-05 +++++++++++++++++++to 1.26402e-05
Heightened Def Con from 1.26402e-05 +++++++++++++++++++to 1.26412e-05
Heightened Def Con from 1.26412e-05 +++++++++++++++++++to 1.26422e-05
Heightened Def Con from 1.26422e-05 +++++++++++++++++++to 1.26432e-05
Heightened Def Con from 1.26432e-05 +++++++++++++++++++to 1.26442e-05
Heightened Def Con from 1.26442e-05 +++++++++++++++++++to 1.26452e-05
Heightened Def Con from 1.26452e-05 +++++++++++++++++++to 1.26462e-05
Heightened Def Con from 1.26462e-05 +++++++++++++++++++to 1.26472e-05
Heightened Def Con from 1.26472e-05 +++++++++++++++++++to 1.26482e-05
Heightened Def Con from 1.26482e-05 +++++++++++++++++++to 1.26492e-05
Heightened Def Con from 1.26492e-05 +++++++++++++++++++to 1.26502e-05
Heightened Def Con from 1.26502e-05 +++++++++++++++++++to 1.26512e-05
Heightened Def Con from 1.26512e-05 +++++++++++++++++++to 1.26522e-05
Heightened Def Con from 1.26522e-05 +++++++++++++++++++to 1.26532e-05
Heightened Def Con from 1.26532e-05 +++++++++++++++++++to 1.26542e-05
Heightened Def Con from 1.26542e-05 +++++++++++++++++++to 1.26552e-05
Heightened Def Con from 1.26552e-05 +++++++++++++++++++to 1.26562e-05
Heightened Def Con from 1.26562e-05 +++++++++++++++++++to 1.26572e-05
Heightened Def Con from 1.26572e-05 +++++++++++++++++++to 1.26582e-05
Heightened Def Con from 1.26582e-05 +++++++++++++++++++to 1.26592e-05
Heightened Def Con from 1.26592e-05 +++++++++++++++++++to 1.26602e-05
Heightened Def Con from 1.26602e-05 +++++++++++++++++++to 1.26612e-05
Heightened Def Con from 1.26612e-05 +++++++++++++++++++to 1.26622e-05
Heightened Def Con from 1.26622e-05 +++++++++++++++++++to 1.26632e-05
Heightened Def Con from 1.26632e-05 +++++++++++++++++++to 1.26642e-05
Heightened Def Con from 1.26642e-05 +++++++++++++++++++to 1.26652e-05
Heightened Def Con from 1.26652e-05 +++++++++++++++++++to 1.26662e-05
Heightened Def Con from 1.26662e-05 +++++++++++++++++++to 1.26672e-05
Heightened Def Con from 1.26672e-05 +++++++++++++++++++to 1.26682e-05
Heightened Def Con from 1.26682e-05 +++++++++++++++++++to 1.26692e-05
Heightened Def Con from 1.26692e-05 +++++++++++++++++++to 1.26702e-05
Heightened Def Con from 1.26702e-05 +++++++++++++++++++to 1.26712e-05
Heightened Def Con from 1.26712e-05 +++++++++++++++++++to 1.26722e-05
Heightened Def Con from 1.26722e-05 +++++++++++++++++++to 1.26732e-05
Heightened Def Con from 1.26732e-05 +++++++++++++++++++to 1.26742e-05
Heightened Def Con from 1.26742e-05 +++++++++++++++++++to 1.26752e-05
Heightened Def Con from 1.26752e-05 +++++++++++++++++++to 1.26762e-05
Heightened Def Con from 1.26762e-05 +++++++++++++++++++to 1.26772e-05
Heightened Def Con from 1.26772e-05 +++++++++++++++++++to 1.26782e-05
Heightened Def Con from 1.26782e-05 +++++++++++++++++++to 1.26792e-05
Heightened Def Con from 1.26792e-05 +++++++++++++++++++to 1.26802e-05
Heightened Def Con from 1.26802e-05 +++++++++++++++++++to 1.26812e-05
Heightened Def Con from 1.26812e-05 +++++++++++++++++++to 1.26822e-05
Heightened Def Con from 1.26822e-05 +++++++++++++++++++to 1.26832e-05
Heightened Def Con from 1.26832e-05 +++++++++++++++++++to 1.26842e-05
Heightened Def Con from 1.26842e-05 +++++++++++++++++++to 1.26852e-05
Heightened Def Con from 1.26852e-05 +++++++++++++++++++to 1.26862e-05
Heightened Def Con from 1.26862e-05 +++++++++++++++++++to 1.26872e-05
Heightened Def Con from 1.26872e-05 +++++++++++++++++++to 1.26882e-05
Heightened Def Con from 1.26882e-05 +++++++++++++++++++to 1.26892e-05
Heightened Def Con from 1.26892e-05 +++++++++++++++++++to 1.26902e-05
Heightened Def Con from 1.26902e-05 +++++++++++++++++++to 1.26912e-05
Heightened Def Con from 1.26912e-05 +++++++++++++++++++to 1.26922e-05
Heightened Def Con from 1.26922e-05 +++++++++++++++++++to 1.26932e-05
Heightened Def Con from 1.26932e-05 +++++++++++++++++++to 1.26942e-05
Heightened Def Con from 1.26942e-05 +++++++++++++++++++to 1.26952e-05
Heightened Def Con from 1.26952e-05 +++++++++++++++++++to 1.26962e-05
Heightened Def Con from 1.26962e-05 +++++++++++++++++++to 1.26972e-05
Heightened Def Con from 1.26972e-05 +++++++++++++++++++to 1.26982e-05
Heightened Def Con from 1.26982e-05 +++++++++++++++++++to 1.26992e-05
Heightened Def Con from 1.26992e-05 +++++++++++++++++++to 1.27002e-05
Heightened Def Con from 1.27002e-05 +++++++++++++++++++to 1.27012e-05
Heightened Def Con from 1.27012e-05 +++++++++++++++++++to 1.27022e-05
Heightened Def Con from 1.27022e-05 +++++++++++++++++++to 1.27032e-05
Heightened Def Con from 1.27032e-05 +++++++++++++++++++to 1.27042e-05
Heightened Def Con from 1.27042e-05 +++++++++++++++++++to 1.27052e-05
Heightened Def Con from 1.27052e-05 +++++++++++++++++++to 1.27062e-05
Heightened Def Con from 1.27062e-05 +++++++++++++++++++to 1.27072e-05
Heightened Def Con from 1.27072e-05 +++++++++++++++++++to 1.27082e-05
Heightened Def Con from 1.27082e-05 +++++++++++++++++++to 1.27092e-05
Heightened Def Con from 1.27092e-05 +++++++++++++++++++to 1.27102e-05
Heightened Def Con from 1.27102e-05 +++++++++++++++++++to 1.27112e-05
Heightened Def Con from 1.27112e-05 +++++++++++++++++++to 1.27122e-05
Heightened Def Con from 1.27122e-05 +++++++++++++++++++to 1.27132e-05
Heightened Def Con from 1.27132e-05 +++++++++++++++++++to 1.27142e-05
Heightened Def Con from 1.27142e-05 +++++++++++++++++++to 1.27152e-05
Heightened Def Con from 1.27152e-05 +++++++++++++++++++to 1.27162e-05
Heightened Def Con from 1.27162e-05 +++++++++++++++++++to 1.27172e-05
Heightened Def Con from 1.27172e-05 +++++++++++++++++++to 1.27182e-05
Heightened Def Con from 1.27182e-05 +++++++++++++++++++to 1.27192e-05
Heightened Def Con from 1.27192e-05 +++++++++++++++++++to 1.27202e-05
Heightened Def Con from 1.27202e-05 +++++++++++++++++++to 1.27212e-05
Heightened Def Con from 1.27212e-05 +++++++++++++++++++to 1.27222e-05
Heightened Def Con from 1.27222e-05 +++++++++++++++++++to 1.27232e-05
Heightened Def Con from 1.27232e-05 +++++++++++++++++++to 1.27242e-05
Heightened Def Con from 1.27242e-05 +++++++++++++++++++to 1.27252e-05
Heightened Def Con from 1.27252e-05 +++++++++++++++++++to 1.27262e-05
Heightened Def Con from 1.27262e-05 +++++++++++++++++++to 1.27272e-05
Heightened Def Con from 1.27272e-05 +++++++++++++++++++to 1.27282e-05
Heightened Def Con from 1.27282e-05 +++++++++++++++++++to 1.27292e-05
Heightened Def Con from 1.27292e-05 +++++++++++++++++++to 1.27302e-05
Heightened Def Con from 1.27302e-05 +++++++++++++++++++to 1.27312e-05
Heightened Def Con from 1.27312e-05 +++++++++++++++++++to 1.27322e-05
Heightened Def Con from 1.27322e-05 +++++++++++++++++++to 1.27332e-05
Heightened Def Con from 1.27332e-05 +++++++++++++++++++to 1.27342e-05
Heightened Def Con from 1.27342e-05 +++++++++++++++++++to 1.27352e-05
Heightened Def Con from 1.27352e-05 +++++++++++++++++++to 1.27362e-05
Heightened Def Con from 1.27362e-05 +++++++++++++++++++to 1.27372e-05
Heightened Def Con from 1.27372e-05 +++++++++++++++++++to 1.27382e-05
Heightened Def Con from 1.27382e-05 +++++++++++++++++++to 1.27392e-05
Heightened Def Con from 1.27392e-05 +++++++++++++++++++to 1.27402e-05
Heightened Def Con from 1.27402e-05 +++++++++++++++++++to 1.27412e-05
Heightened Def Con from 1.27412e-05 +++++++++++++++++++to 1.27422e-05
Heightened Def Con from 1.27422e-05 +++++++++++++++++++to 1.27432e-05
Heightened Def Con from 1.27432e-05 +++++++++++++++++++to 1.27442e-05
Heightened Def Con from 1.27442e-05 +++++++++++++++++++to 1.27452e-05
Heightened Def Con from 1.27452e-05 +++++++++++++++++++to 1.27462e-05
Heightened Def Con from 1.27462e-05 +++++++++++++++++++to 1.27472e-05
Heightened Def Con from 1.27472e-05 +++++++++++++++++++to 1.27482e-05
Heightened Def Con from 1.27482e-05 +++++++++++++++++++to 1.27492e-05
Heightened Def Con from 1.27492e-05 +++++++++++++++++++to 1.27502e-05
Heightened Def Con from 1.27502e-05 +++++++++++++++++++to 1.27512e-05
Heightened Def Con from 1.27512e-05 +++++++++++++++++++to 1.27522e-05
Heightened Def Con from 1.27522e-05 +++++++++++++++++++to 1.27532e-05
Heightened Def Con from 1.27532e-05 +++++++++++++++++++to 1.27542e-05
Heightened Def Con from 1.27542e-05 +++++++++++++++++++to 1.27552e-05
Heightened Def Con from 1.27552e-05 +++++++++++++++++++to 1.27562e-05
Heightened Def Con from 1.27562e-05 +++++++++++++++++++to 1.27572e-05
Heightened Def Con from 1.27572e-05 +++++++++++++++++++to 1.27582e-05
Heightened Def Con from 1.27582e-05 +++++++++++++++++++to 1.27592e-05
Heightened Def Con from 1.27592e-05 +++++++++++++++++++to 1.27602e-05
Heightened Def Con from 1.27602e-05 +++++++++++++++++++to 1.27612e-05
Heightened Def Con from 1.27612e-05 +++++++++++++++++++to 1.27622e-05
Heightened Def Con from 1.27622e-05 +++++++++++++++++++to 1.27632e-05
Heightened Def Con from 1.27632e-05 +++++++++++++++++++to 1.27642e-05
Heightened Def Con from 1.27642e-05 +++++++++++++++++++to 1.27652e-05
Heightened Def Con from 1.27652e-05 +++++++++++++++++++to 1.27662e-05
Heightened Def Con from 1.27662e-05 +++++++++++++++++++to 1.27672e-05
Heightened Def Con from 1.27672e-05 +++++++++++++++++++to 1.27682e-05
Heightened Def Con from 1.27682e-05 +++++++++++++++++++to 1.27692e-05
Heightened Def Con from 1.27692e-05 +++++++++++++++++++to 1.27702e-05
Heightened Def Con from 1.27702e-05 +++++++++++++++++++to 1.27712e-05
Heightened Def Con from 1.27712e-05 +++++++++++++++++++to 1.27722e-05
Heightened Def Con from 1.27722e-05 +++++++++++++++++++to 1.27732e-05
Heightened Def Con from 1.27732e-05 +++++++++++++++++++to 1.27742e-05
Heightened Def Con from 1.27742e-05 +++++++++++++++++++to 1.27752e-05
Heightened Def Con from 1.27752e-05 +++++++++++++++++++to 1.27762e-05
Heightened Def Con from 1.27762e-05 +++++++++++++++++++to 1.27772e-05
Heightened Def Con from 1.27772e-05 +++++++++++++++++++to 1.27782e-05
Heightened Def Con from 1.27782e-05 +++++++++++++++++++to 1.27792e-05
Heightened Def Con from 1.27792e-05 +++++++++++++++++++to 1.27802e-05
Heightened Def Con from 1.27802e-05 +++++++++++++++++++to 1.27812e-05
Heightened Def Con from 1.27812e-05 +++++++++++++++++++to 1.27822e-05
Heightened Def Con from 1.27822e-05 +++++++++++++++++++to 1.27832e-05
Heightened Def Con from 1.27832e-05 +++++++++++++++++++to 1.27842e-05
Heightened Def Con from 1.27842e-05 +++++++++++++++++++to 1.27852e-05
Heightened Def Con from 1.27852e-05 +++++++++++++++++++to 1.27862e-05
Heightened Def Con from 1.27862e-05 +++++++++++++++++++to 1.27872e-05
Heightened Def Con from 1.27872e-05 +++++++++++++++++++to 1.27882e-05
Heightened Def Con from 1.27882e-05 +++++++++++++++++++to 1.27892e-05
Heightened Def Con from 1.27892e-05 +++++++++++++++++++to 1.27902e-05
Heightened Def Con from 1.27902e-05 +++++++++++++++++++to 1.27912e-05
Heightened Def Con from 1.27912e-05 +++++++++++++++++++to 1.27922e-05
Heightened Def Con from 1.27922e-05 +++++++++++++++++++to 1.27932e-05
Heightened Def Con from 1.27932e-05 +++++++++++++++++++to 1.27942e-05
Heightened Def Con from 1.27942e-05 +++++++++++++++++++to 1.27952e-05
Heightened Def Con from 1.27952e-05 +++++++++++++++++++to 1.27962e-05
Heightened Def Con from 1.27962e-05 +++++++++++++++++++to 1.27972e-05
Heightened Def Con from 1.27972e-05 +++++++++++++++++++to 1.27982e-05
Heightened Def Con from 1.27982e-05 +++++++++++++++++++to 1.27992e-05
Heightened Def Con from 1.27992e-05 +++++++++++++++++++to 1.28002e-05
Heightened Def Con from 1.28002e-05 +++++++++++++++++++to 1.28012e-05
Heightened Def Con from 1.28012e-05 +++++++++++++++++++to 1.28022e-05
Heightened Def Con from 1.28022e-05 +++++++++++++++++++to 1.28032e-05
Heightened Def Con from 1.28032e-05 +++++++++++++++++++to 1.28042e-05
Heightened Def Con from 1.28042e-05 +++++++++++++++++++to 1.28052e-05
Heightened Def Con from 1.28052e-05 +++++++++++++++++++to 1.28062e-05
Heightened Def Con from 1.28062e-05 +++++++++++++++++++to 1.28072e-05
Heightened Def Con from 1.28072e-05 +++++++++++++++++++to 1.28082e-05
Heightened Def Con from 1.28082e-05 +++++++++++++++++++to 1.28092e-05
Heightened Def Con from 1.28092e-05 +++++++++++++++++++to 1.28102e-05
Heightened Def Con from 1.28102e-05 +++++++++++++++++++to 1.28112e-05
Heightened Def Con from 1.28112e-05 +++++++++++++++++++to 1.28122e-05
Heightened Def Con from 1.28122e-05 +++++++++++++++++++to 1.28132e-05
Heightened Def Con from 1.28132e-05 +++++++++++++++++++to 1.28142e-05
Heightened Def Con from 1.28142e-05 +++++++++++++++++++to 1.28152e-05
Heightened Def Con from 1.28152e-05 +++++++++++++++++++to 1.28162e-05
Heightened Def Con from 1.28162e-05 +++++++++++++++++++to 1.28172e-05
Heightened Def Con from 1.28172e-05 +++++++++++++++++++to 1.28182e-05
Heightened Def Con from 1.28182e-05 +++++++++++++++++++to 1.28192e-05
Heightened Def Con from 1.28192e-05 +++++++++++++++++++to 1.28202e-05
Heightened Def Con from 1.28202e-05 +++++++++++++++++++to 1.28212e-05
Heightened Def Con from 1.28212e-05 +++++++++++++++++++to 1.28222e-05
Heightened Def Con from 1.28222e-05 +++++++++++++++++++to 1.28232e-05
Heightened Def Con from 1.28232e-05 +++++++++++++++++++to 1.28242e-05
Heightened Def Con from 1.28242e-05 +++++++++++++++++++to 1.28252e-05
Heightened Def Con from 1.28252e-05 +++++++++++++++++++to 1.28262e-05
Heightened Def Con from 1.28262e-05 +++++++++++++++++++to 1.28272e-05
Heightened Def Con from 1.28272e-05 +++++++++++++++++++to 1.28282e-05
Heightened Def Con from 1.28282e-05 +++++++++++++++++++to 1.28292e-05
Heightened Def Con from 1.28292e-05 +++++++++++++++++++to 1.28302e-05
Heightened Def Con from 1.28302e-05 +++++++++++++++++++to 1.28312e-05
Heightened Def Con from 1.28312e-05 +++++++++++++++++++to 1.28322e-05
Heightened Def Con from 1.28322e-05 +++++++++++++++++++to 1.28332e-05
Heightened Def Con from 1.28332e-05 +++++++++++++++++++to 1.28342e-05
Heightened Def Con from 1.28342e-05 +++++++++++++++++++to 1.28352e-05
Heightened Def Con from 1.28352e-05 +++++++++++++++++++to 1.28362e-05
Heightened Def Con from 1.28362e-05 +++++++++++++++++++to 1.28372e-05
Heightened Def Con from 1.28372e-05 +++++++++++++++++++to 1.28382e-05
Heightened Def Con from 1.28382e-05 +++++++++++++++++++to 1.28392e-05
Heightened Def Con from 1.28392e-05 +++++++++++++++++++to 1.28402e-05
Heightened Def Con from 1.28402e-05 +++++++++++++++++++to 1.28412e-05
Heightened Def Con from 1.28412e-05 +++++++++++++++++++to 1.28422e-05
Heightened Def Con from 1.28422e-05 +++++++++++++++++++to 1.28432e-05
Heightened Def Con from 1.28432e-05 +++++++++++++++++++to 1.28442e-05
Heightened Def Con from 1.28442e-05 +++++++++++++++++++to 1.28452e-05
Heightened Def Con from 1.28452e-05 +++++++++++++++++++to 1.28462e-05
Heightened Def Con from 1.28462e-05 +++++++++++++++++++to 1.28472e-05
Heightened Def Con from 1.28472e-05 +++++++++++++++++++to 1.28482e-05
Heightened Def Con from 1.28482e-05 +++++++++++++++++++to 1.28492e-05
Heightened Def Con from 1.28492e-05 +++++++++++++++++++to 1.28502e-05
Heightened Def Con from 1.28502e-05 +++++++++++++++++++to 1.28512e-05
Heightened Def Con from 1.28512e-05 +++++++++++++++++++to 1.28522e-05
Heightened Def Con from 1.28522e-05 +++++++++++++++++++to 1.28532e-05
Heightened Def Con from 1.28532e-05 +++++++++++++++++++to 1.28542e-05
Heightened Def Con from 1.28542e-05 +++++++++++++++++++to 1.28552e-05
Heightened Def Con from 1.28552e-05 +++++++++++++++++++to 1.28562e-05
Heightened Def Con from 1.28562e-05 +++++++++++++++++++to 1.28572e-05
Heightened Def Con from 1.28572e-05 +++++++++++++++++++to 1.28582e-05
Heightened Def Con from 1.28582e-05 +++++++++++++++++++to 1.28592e-05
Heightened Def Con from 1.28592e-05 +++++++++++++++++++to 1.28602e-05
Heightened Def Con from 1.28602e-05 +++++++++++++++++++to 1.28612e-05
Heightened Def Con from 1.28612e-05 +++++++++++++++++++to 1.28622e-05
Heightened Def Con from 1.28622e-05 +++++++++++++++++++to 1.28632e-05
Heightened Def Con from 1.28632e-05 +++++++++++++++++++to 1.28642e-05
Heightened Def Con from 1.28642e-05 +++++++++++++++++++to 1.28652e-05
Heightened Def Con from 1.28652e-05 +++++++++++++++++++to 1.28662e-05
Heightened Def Con from 1.28662e-05 +++++++++++++++++++to 1.28672e-05
Heightened Def Con from 1.28672e-05 +++++++++++++++++++to 1.28682e-05
Heightened Def Con from 1.28682e-05 +++++++++++++++++++to 1.28692e-05
Heightened Def Con from 1.28692e-05 +++++++++++++++++++to 1.28702e-05
Heightened Def Con from 1.28702e-05 +++++++++++++++++++to 1.28712e-05
Heightened Def Con from 1.28712e-05 +++++++++++++++++++to 1.28722e-05
Heightened Def Con from 1.28722e-05 +++++++++++++++++++to 1.28732e-05
Heightened Def Con from 1.28732e-05 +++++++++++++++++++to 1.28742e-05
Heightened Def Con from 1.28742e-05 +++++++++++++++++++to 1.28752e-05
Heightened Def Con from 1.28752e-05 +++++++++++++++++++to 1.28762e-05
Heightened Def Con from 1.28762e-05 +++++++++++++++++++to 1.28772e-05
Heightened Def Con from 1.28772e-05 +++++++++++++++++++to 1.28782e-05
Heightened Def Con from 1.28782e-05 +++++++++++++++++++to 1.28792e-05
Heightened Def Con from 1.28792e-05 +++++++++++++++++++to 1.28802e-05
Heightened Def Con from 1.28802e-05 +++++++++++++++++++to 1.28812e-05
Heightened Def Con from 1.28812e-05 +++++++++++++++++++to 1.28822e-05
Heightened Def Con from 1.28822e-05 +++++++++++++++++++to 1.28832e-05
Heightened Def Con from 1.28832e-05 +++++++++++++++++++to 1.28842e-05
Heightened Def Con from 1.28842e-05 +++++++++++++++++++to 1.28852e-05
Heightened Def Con from 1.28852e-05 +++++++++++++++++++to 1.28862e-05
Heightened Def Con from 1.28862e-05 +++++++++++++++++++to 1.28872e-05
Heightened Def Con from 1.28872e-05 +++++++++++++++++++to 1.28882e-05
Heightened Def Con from 1.28882e-05 +++++++++++++++++++to 1.28892e-05
Heightened Def Con from 1.28892e-05 +++++++++++++++++++to 1.28902e-05
Heightened Def Con from 1.28902e-05 +++++++++++++++++++to 1.28912e-05
Heightened Def Con from 1.28912e-05 +++++++++++++++++++to 1.28922e-05
Heightened Def Con from 1.28922e-05 +++++++++++++++++++to 1.28932e-05
Heightened Def Con from 1.28932e-05 +++++++++++++++++++to 1.28942e-05
Heightened Def Con from 1.28942e-05 +++++++++++++++++++to 1.28952e-05
Heightened Def Con from 1.28952e-05 +++++++++++++++++++to 1.28962e-05
Heightened Def Con from 1.28962e-05 +++++++++++++++++++to 1.28972e-05
Heightened Def Con from 1.28972e-05 +++++++++++++++++++to 1.28982e-05
Heightened Def Con from 1.28982e-05 +++++++++++++++++++to 1.28992e-05
Heightened Def Con from 1.28992e-05 +++++++++++++++++++to 1.29002e-05
Heightened Def Con from 1.29002e-05 +++++++++++++++++++to 1.29012e-05
Heightened Def Con from 1.29012e-05 +++++++++++++++++++to 1.29022e-05
Heightened Def Con from 1.29022e-05 +++++++++++++++++++to 1.29032e-05
Heightened Def Con from 1.29032e-05 +++++++++++++++++++to 1.29042e-05
Heightened Def Con from 1.29042e-05 +++++++++++++++++++to 1.29052e-05
Heightened Def Con from 1.29052e-05 +++++++++++++++++++to 1.29062e-05
Heightened Def Con from 1.29062e-05 +++++++++++++++++++to 1.29072e-05
Heightened Def Con from 1.29072e-05 +++++++++++++++++++to 1.29082e-05
Heightened Def Con from 1.29082e-05 +++++++++++++++++++to 1.29092e-05
Heightened Def Con from 1.29092e-05 +++++++++++++++++++to 1.29102e-05
Heightened Def Con from 1.29102e-05 +++++++++++++++++++to 1.29112e-05
Heightened Def Con from 1.29112e-05 +++++++++++++++++++to 1.29122e-05
Heightened Def Con from 1.29122e-05 +++++++++++++++++++to 1.29132e-05
Heightened Def Con from 1.29132e-05 +++++++++++++++++++to 1.29142e-05
Heightened Def Con from 1.29142e-05 +++++++++++++++++++to 1.29152e-05
Heightened Def Con from 1.29152e-05 +++++++++++++++++++to 1.29162e-05
Heightened Def Con from 1.29162e-05 +++++++++++++++++++to 1.29172e-05
Heightened Def Con from 1.29172e-05 +++++++++++++++++++to 1.29182e-05
Heightened Def Con from 1.29182e-05 +++++++++++++++++++to 1.29192e-05
Heightened Def Con from 1.29192e-05 +++++++++++++++++++to 1.29202e-05
Heightened Def Con from 1.29202e-05 +++++++++++++++++++to 1.29212e-05
Heightened Def Con from 1.29212e-05 +++++++++++++++++++to 1.29222e-05
Heightened Def Con from 1.29222e-05 +++++++++++++++++++to 1.29232e-05
Heightened Def Con from 1.29232e-05 +++++++++++++++++++to 1.29242e-05
Heightened Def Con from 1.29242e-05 +++++++++++++++++++to 1.29252e-05
Heightened Def Con from 1.29252e-05 +++++++++++++++++++to 1.29262e-05
Heightened Def Con from 1.29262e-05 +++++++++++++++++++to 1.29272e-05
Heightened Def Con from 1.29272e-05 +++++++++++++++++++to 1.29282e-05
Heightened Def Con from 1.29282e-05 +++++++++++++++++++to 1.29292e-05
Heightened Def Con from 1.29292e-05 +++++++++++++++++++to 1.29302e-05
Heightened Def Con from 1.29302e-05 +++++++++++++++++++to 1.29312e-05
Heightened Def Con from 1.29312e-05 +++++++++++++++++++to 1.29322e-05
Heightened Def Con from 1.29322e-05 +++++++++++++++++++to 1.29332e-05
Heightened Def Con from 1.29332e-05 +++++++++++++++++++to 1.29342e-05
Heightened Def Con from 1.29342e-05 +++++++++++++++++++to 1.29352e-05
Heightened Def Con from 1.29352e-05 +++++++++++++++++++to 1.29362e-05
Heightened Def Con from 1.29362e-05 +++++++++++++++++++to 1.29372e-05
Heightened Def Con from 1.29372e-05 +++++++++++++++++++to 1.29382e-05
Heightened Def Con from 1.29382e-05 +++++++++++++++++++to 1.29392e-05
Heightened Def Con from 1.29392e-05 +++++++++++++++++++to 1.29402e-05
Heightened Def Con from 1.29402e-05 +++++++++++++++++++to 1.29412e-05
Heightened Def Con from 1.29412e-05 +++++++++++++++++++to 1.29422e-05
Heightened Def Con from 1.29422e-05 +++++++++++++++++++to 1.29432e-05
Heightened Def Con from 1.29432e-05 +++++++++++++++++++to 1.29442e-05
Heightened Def Con from 1.29442e-05 +++++++++++++++++++to 1.29452e-05
Heightened Def Con from 1.29452e-05 +++++++++++++++++++to 1.29462e-05
Heightened Def Con from 1.29462e-05 +++++++++++++++++++to 1.29472e-05
Heightened Def Con from 1.29472e-05 +++++++++++++++++++to 1.29482e-05
Heightened Def Con from 1.29482e-05 +++++++++++++++++++to 1.29492e-05
Heightened Def Con from 1.29492e-05 +++++++++++++++++++to 1.29502e-05
Heightened Def Con from 1.29502e-05 +++++++++++++++++++to 1.29512e-05
Heightened Def Con from 1.29512e-05 +++++++++++++++++++to 1.29522e-05
Heightened Def Con from 1.29522e-05 +++++++++++++++++++to 1.29532e-05
Heightened Def Con from 1.29532e-05 +++++++++++++++++++to 1.29542e-05
Heightened Def Con from 1.29542e-05 +++++++++++++++++++to 1.29552e-05
Heightened Def Con from 1.29552e-05 +++++++++++++++++++to 1.29562e-05
Heightened Def Con from 1.29562e-05 +++++++++++++++++++to 1.29572e-05
Heightened Def Con from 1.29572e-05 +++++++++++++++++++to 1.29582e-05
Heightened Def Con from 1.29582e-05 +++++++++++++++++++to 1.29592e-05
Heightened Def Con from 1.29592e-05 +++++++++++++++++++to 1.29602e-05
Heightened Def Con from 1.29602e-05 +++++++++++++++++++to 1.29612e-05
Heightened Def Con from 1.29612e-05 +++++++++++++++++++to 1.29622e-05
Heightened Def Con from 1.29622e-05 +++++++++++++++++++to 1.29632e-05
Heightened Def Con from 1.29632e-05 +++++++++++++++++++to 1.29642e-05
Heightened Def Con from 1.29642e-05 +++++++++++++++++++to 1.29652e-05
Heightened Def Con from 1.29652e-05 +++++++++++++++++++to 1.29662e-05
Heightened Def Con from 1.29662e-05 +++++++++++++++++++to 1.29672e-05
Heightened Def Con from 1.29672e-05 +++++++++++++++++++to 1.29682e-05
Heightened Def Con from 1.29682e-05 +++++++++++++++++++to 1.29692e-05
Heightened Def Con from 1.29692e-05 +++++++++++++++++++to 1.29702e-05
Heightened Def Con from 1.29702e-05 +++++++++++++++++++to 1.29712e-05
Heightened Def Con from 1.29712e-05 +++++++++++++++++++to 1.29722e-05
Heightened Def Con from 1.29722e-05 +++++++++++++++++++to 1.29732e-05
Heightened Def Con from 1.29732e-05 +++++++++++++++++++to 1.29742e-05
Heightened Def Con from 1.29742e-05 +++++++++++++++++++to 1.29752e-05
Heightened Def Con from 1.29752e-05 +++++++++++++++++++to 1.29762e-05
Heightened Def Con from 1.29762e-05 +++++++++++++++++++to 1.29772e-05
Heightened Def Con from 1.29772e-05 +++++++++++++++++++to 1.29782e-05
Heightened Def Con from 1.29782e-05 +++++++++++++++++++to 1.29792e-05
Heightened Def Con from 1.29792e-05 +++++++++++++++++++to 1.29802e-05
Heightened Def Con from 1.29802e-05 +++++++++++++++++++to 1.29812e-05
Heightened Def Con from 1.29812e-05 +++++++++++++++++++to 1.29822e-05
Heightened Def Con from 1.29822e-05 +++++++++++++++++++to 1.29832e-05
Heightened Def Con from 1.29832e-05 +++++++++++++++++++to 1.29842e-05
Heightened Def Con from 1.29842e-05 +++++++++++++++++++to 1.29852e-05
Heightened Def Con from 1.29852e-05 +++++++++++++++++++to 1.29862e-05
Heightened Def Con from 1.29862e-05 +++++++++++++++++++to 1.29872e-05
Heightened Def Con from 1.29872e-05 +++++++++++++++++++to 1.29882e-05
Heightened Def Con from 1.29882e-05 +++++++++++++++++++to 1.29892e-05
Heightened Def Con from 1.29892e-05 +++++++++++++++++++to 1.29902e-05
Heightened Def Con from 1.29902e-05 +++++++++++++++++++to 1.29912e-05
Heightened Def Con from 1.29912e-05 +++++++++++++++++++to 1.29922e-05
Heightened Def Con from 1.29922e-05 +++++++++++++++++++to 1.29932e-05
Heightened Def Con from 1.29932e-05 +++++++++++++++++++to 1.29942e-05
Heightened Def Con from 1.29942e-05 +++++++++++++++++++to 1.29952e-05
Heightened Def Con from 1.29952e-05 +++++++++++++++++++to 1.29962e-05
Heightened Def Con from 1.29962e-05 +++++++++++++++++++to 1.29972e-05
Heightened Def Con from 1.29972e-05 +++++++++++++++++++to 1.29982e-05
Heightened Def Con from 1.29982e-05 +++++++++++++++++++to 1.29992e-05
Heightened Def Con from 1.29992e-05 +++++++++++++++++++to 1.30002e-05
Heightened Def Con from 1.30002e-05 +++++++++++++++++++to 1.30012e-05
Heightened Def Con from 1.30012e-05 +++++++++++++++++++to 1.30022e-05
Heightened Def Con from 1.30022e-05 +++++++++++++++++++to 1.30032e-05
Heightened Def Con from 1.30032e-05 +++++++++++++++++++to 1.30042e-05
Heightened Def Con from 1.30042e-05 +++++++++++++++++++to 1.30052e-05
Heightened Def Con from 1.30052e-05 +++++++++++++++++++to 1.30062e-05
Heightened Def Con from 1.30062e-05 +++++++++++++++++++to 1.30072e-05
Heightened Def Con from 1.30072e-05 +++++++++++++++++++to 1.30082e-05
Heightened Def Con from 1.30082e-05 +++++++++++++++++++to 1.30092e-05
Heightened Def Con from 1.30092e-05 +++++++++++++++++++to 1.30102e-05
Heightened Def Con from 1.30102e-05 +++++++++++++++++++to 1.30112e-05
Heightened Def Con from 1.30112e-05 +++++++++++++++++++to 1.30122e-05
Heightened Def Con from 1.30122e-05 +++++++++++++++++++to 1.30132e-05
Heightened Def Con from 1.30132e-05 +++++++++++++++++++to 1.30142e-05
Heightened Def Con from 1.30142e-05 +++++++++++++++++++to 1.30152e-05
Heightened Def Con from 1.30152e-05 +++++++++++++++++++to 1.30162e-05
Heightened Def Con from 1.30162e-05 +++++++++++++++++++to 1.30172e-05
Heightened Def Con from 1.30172e-05 +++++++++++++++++++to 1.30182e-05
Heightened Def Con from 1.30182e-05 +++++++++++++++++++to 1.30192e-05
Heightened Def Con from 1.30192e-05 +++++++++++++++++++to 1.30202e-05
Heightened Def Con from 1.30202e-05 +++++++++++++++++++to 1.30212e-05
Heightened Def Con from 1.30212e-05 +++++++++++++++++++to 1.30222e-05
Heightened Def Con from 1.30222e-05 +++++++++++++++++++to 1.30232e-05
Heightened Def Con from 1.30232e-05 +++++++++++++++++++to 1.30242e-05
Heightened Def Con from 1.30242e-05 +++++++++++++++++++to 1.30252e-05
Heightened Def Con from 1.30252e-05 +++++++++++++++++++to 1.30262e-05
Heightened Def Con from 1.30262e-05 +++++++++++++++++++to 1.30272e-05
Heightened Def Con from 1.30272e-05 +++++++++++++++++++to 1.30282e-05
Heightened Def Con from 1.30282e-05 +++++++++++++++++++to 1.30292e-05
Heightened Def Con from 1.30292e-05 +++++++++++++++++++to 1.30302e-05
Heightened Def Con from 1.30302e-05 +++++++++++++++++++to 1.30312e-05
Heightened Def Con from 1.30312e-05 +++++++++++++++++++to 1.30322e-05
Heightened Def Con from 1.30322e-05 +++++++++++++++++++to 1.30332e-05
Heightened Def Con from 1.30332e-05 +++++++++++++++++++to 1.30342e-05
Heightened Def Con from 1.30342e-05 +++++++++++++++++++to 1.30352e-05
Heightened Def Con from 1.30352e-05 +++++++++++++++++++to 1.30362e-05
Heightened Def Con from 1.30362e-05 +++++++++++++++++++to 1.30372e-05
Heightened Def Con from 1.30372e-05 +++++++++++++++++++to 1.30382e-05
Heightened Def Con from 1.30382e-05 +++++++++++++++++++to 1.30392e-05
Heightened Def Con from 1.30392e-05 +++++++++++++++++++to 1.30402e-05
Heightened Def Con from 1.30402e-05 +++++++++++++++++++to 1.30412e-05
Heightened Def Con from 1.30412e-05 +++++++++++++++++++to 1.30422e-05
Heightened Def Con from 1.30422e-05 +++++++++++++++++++to 1.30432e-05
Heightened Def Con from 1.30432e-05 +++++++++++++++++++to 1.30442e-05
Heightened Def Con from 1.30442e-05 +++++++++++++++++++to 1.30452e-05
Heightened Def Con from 1.30452e-05 +++++++++++++++++++to 1.30462e-05
Heightened Def Con from 1.30462e-05 +++++++++++++++++++to 1.30472e-05
Heightened Def Con from 1.30472e-05 +++++++++++++++++++to 1.30482e-05
Heightened Def Con from 1.30482e-05 +++++++++++++++++++to 1.30492e-05
Heightened Def Con from 1.30492e-05 +++++++++++++++++++to 1.30502e-05
Heightened Def Con from 1.30502e-05 +++++++++++++++++++to 1.30512e-05
Heightened Def Con from 1.30512e-05 +++++++++++++++++++to 1.30522e-05
Heightened Def Con from 1.30522e-05 +++++++++++++++++++to 1.30532e-05
Heightened Def Con from 1.30532e-05 +++++++++++++++++++to 1.30542e-05
Heightened Def Con from 1.30542e-05 +++++++++++++++++++to 1.30552e-05
Heightened Def Con from 1.30552e-05 +++++++++++++++++++to 1.30562e-05
Heightened Def Con from 1.30562e-05 +++++++++++++++++++to 1.30572e-05
Heightened Def Con from 1.30572e-05 +++++++++++++++++++to 1.30582e-05
Heightened Def Con from 1.30582e-05 +++++++++++++++++++to 1.30592e-05
Heightened Def Con from 1.30592e-05 +++++++++++++++++++to 1.30602e-05
Heightened Def Con from 1.30602e-05 +++++++++++++++++++to 1.30612e-05
Heightened Def Con from 1.30612e-05 +++++++++++++++++++to 1.30622e-05
Heightened Def Con from 1.30622e-05 +++++++++++++++++++to 1.30632e-05
Heightened Def Con from 1.30632e-05 +++++++++++++++++++to 1.30642e-05
Heightened Def Con from 1.30642e-05 +++++++++++++++++++to 1.30652e-05
Heightened Def Con from 1.30652e-05 +++++++++++++++++++to 1.30662e-05
Heightened Def Con from 1.30662e-05 +++++++++++++++++++to 1.30672e-05
Heightened Def Con from 1.30672e-05 +++++++++++++++++++to 1.30682e-05
Heightened Def Con from 1.30682e-05 +++++++++++++++++++to 1.30692e-05
Heightened Def Con from 1.30692e-05 +++++++++++++++++++to 1.30702e-05
Heightened Def Con from 1.30702e-05 +++++++++++++++++++to 1.30712e-05
Heightened Def Con from 1.30712e-05 +++++++++++++++++++to 1.30722e-05
Heightened Def Con from 1.30722e-05 +++++++++++++++++++to 1.30732e-05
Heightened Def Con from 1.30732e-05 +++++++++++++++++++to 1.30742e-05
Heightened Def Con from 1.30742e-05 +++++++++++++++++++to 1.30752e-05
Heightened Def Con from 1.30752e-05 +++++++++++++++++++to 1.30762e-05
Heightened Def Con from 1.30762e-05 +++++++++++++++++++to 1.30772e-05
Heightened Def Con from 1.30772e-05 +++++++++++++++++++to 1.30782e-05
Heightened Def Con from 1.30782e-05 +++++++++++++++++++to 1.30792e-05
Heightened Def Con from 1.30792e-05 +++++++++++++++++++to 1.30802e-05
Heightened Def Con from 1.30802e-05 +++++++++++++++++++to 1.30812e-05
Heightened Def Con from 1.30812e-05 +++++++++++++++++++to 1.30822e-05
Heightened Def Con from 1.30822e-05 +++++++++++++++++++to 1.30832e-05
Heightened Def Con from 1.30832e-05 +++++++++++++++++++to 1.30842e-05
Heightened Def Con from 1.30842e-05 +++++++++++++++++++to 1.30852e-05
Heightened Def Con from 1.30852e-05 +++++++++++++++++++to 1.30862e-05
Heightened Def Con from 1.30862e-05 +++++++++++++++++++to 1.30872e-05
Heightened Def Con from 1.30872e-05 +++++++++++++++++++to 1.30882e-05
Heightened Def Con from 1.30882e-05 +++++++++++++++++++to 1.30892e-05
Heightened Def Con from 1.30892e-05 +++++++++++++++++++to 1.30902e-05
Heightened Def Con from 1.30902e-05 +++++++++++++++++++to 1.30912e-05
Heightened Def Con from 1.30912e-05 +++++++++++++++++++to 1.30922e-05
Heightened Def Con from 1.30922e-05 +++++++++++++++++++to 1.30932e-05
Heightened Def Con from 1.30932e-05 +++++++++++++++++++to 1.30942e-05
Heightened Def Con from 1.30942e-05 +++++++++++++++++++to 1.30952e-05
Heightened Def Con from 1.30952e-05 +++++++++++++++++++to 1.30962e-05
Heightened Def Con from 1.30962e-05 +++++++++++++++++++to 1.30972e-05
Heightened Def Con from 1.30972e-05 +++++++++++++++++++to 1.30982e-05
Heightened Def Con from 1.30982e-05 +++++++++++++++++++to 1.30992e-05
Heightened Def Con from 1.30992e-05 +++++++++++++++++++to 1.31002e-05
Heightened Def Con from 1.31002e-05 +++++++++++++++++++to 1.31012e-05
Heightened Def Con from 1.31012e-05 +++++++++++++++++++to 1.31022e-05
Heightened Def Con from 1.31022e-05 +++++++++++++++++++to 1.31032e-05
Heightened Def Con from 1.31032e-05 +++++++++++++++++++to 1.31042e-05
Heightened Def Con from 1.31042e-05 +++++++++++++++++++to 1.31052e-05
Heightened Def Con from 1.31052e-05 +++++++++++++++++++to 1.31062e-05
Heightened Def Con from 1.31062e-05 +++++++++++++++++++to 1.31072e-05
Heightened Def Con from 1.31072e-05 +++++++++++++++++++to 1.31082e-05
Heightened Def Con from 1.31082e-05 +++++++++++++++++++to 1.31092e-05
Heightened Def Con from 1.31092e-05 +++++++++++++++++++to 1.31102e-05
Heightened Def Con from 1.31102e-05 +++++++++++++++++++to 1.31112e-05
Heightened Def Con from 1.31112e-05 +++++++++++++++++++to 1.31122e-05
Heightened Def Con from 1.31122e-05 +++++++++++++++++++to 1.31132e-05
Heightened Def Con from 1.31132e-05 +++++++++++++++++++to 1.31142e-05
Heightened Def Con from 1.31142e-05 +++++++++++++++++++to 1.31152e-05
Heightened Def Con from 1.31152e-05 +++++++++++++++++++to 1.31162e-05
Heightened Def Con from 1.31162e-05 +++++++++++++++++++to 1.31172e-05
Heightened Def Con from 1.31172e-05 +++++++++++++++++++to 1.31182e-05
Heightened Def Con from 1.31182e-05 +++++++++++++++++++to 1.31192e-05
Heightened Def Con from 1.31192e-05 +++++++++++++++++++to 1.31202e-05
Heightened Def Con from 1.31202e-05 +++++++++++++++++++to 1.31212e-05
Heightened Def Con from 1.31212e-05 +++++++++++++++++++to 1.31222e-05
Heightened Def Con from 1.31222e-05 +++++++++++++++++++to 1.31232e-05
Heightened Def Con from 1.31232e-05 +++++++++++++++++++to 1.31242e-05
Heightened Def Con from 1.31242e-05 +++++++++++++++++++to 1.31252e-05
Heightened Def Con from 1.31252e-05 +++++++++++++++++++to 1.31262e-05
Heightened Def Con from 1.31262e-05 +++++++++++++++++++to 1.31272e-05
Heightened Def Con from 1.31272e-05 +++++++++++++++++++to 1.31282e-05
Heightened Def Con from 1.31282e-05 +++++++++++++++++++to 1.31292e-05
Heightened Def Con from 1.31292e-05 +++++++++++++++++++to 1.31302e-05
Heightened Def Con from 1.31302e-05 +++++++++++++++++++to 1.31312e-05
Heightened Def Con from 1.31312e-05 +++++++++++++++++++to 1.31322e-05
Heightened Def Con from 1.31322e-05 +++++++++++++++++++to 1.31332e-05
Heightened Def Con from 1.31332e-05 +++++++++++++++++++to 1.31342e-05
Heightened Def Con from 1.31342e-05 +++++++++++++++++++to 1.31352e-05
Heightened Def Con from 1.31352e-05 +++++++++++++++++++to 1.31362e-05
Heightened Def Con from 1.31362e-05 +++++++++++++++++++to 1.31372e-05
Heightened Def Con from 1.31372e-05 +++++++++++++++++++to 1.31382e-05
Heightened Def Con from 1.31382e-05 +++++++++++++++++++to 1.31392e-05
Heightened Def Con from 1.31392e-05 +++++++++++++++++++to 1.31402e-05
Heightened Def Con from 1.31402e-05 +++++++++++++++++++to 1.31412e-05
Heightened Def Con from 1.31412e-05 +++++++++++++++++++to 1.31422e-05
Heightened Def Con from 1.31422e-05 +++++++++++++++++++to 1.31432e-05
Heightened Def Con from 1.31432e-05 +++++++++++++++++++to 1.31442e-05
Heightened Def Con from 1.31442e-05 +++++++++++++++++++to 1.31452e-05
Heightened Def Con from 1.31452e-05 +++++++++++++++++++to 1.31462e-05
Heightened Def Con from 1.31462e-05 +++++++++++++++++++to 1.31472e-05
Heightened Def Con from 1.31472e-05 +++++++++++++++++++to 1.31482e-05
Heightened Def Con from 1.31482e-05 +++++++++++++++++++to 1.31492e-05
Heightened Def Con from 1.31492e-05 +++++++++++++++++++to 1.31502e-05
Heightened Def Con from 1.31502e-05 +++++++++++++++++++to 1.31512e-05
Heightened Def Con from 1.31512e-05 +++++++++++++++++++to 1.31522e-05
Heightened Def Con from 1.31522e-05 +++++++++++++++++++to 1.31532e-05
Heightened Def Con from 1.31532e-05 +++++++++++++++++++to 1.31542e-05
Heightened Def Con from 1.31542e-05 +++++++++++++++++++to 1.31552e-05
Heightened Def Con from 1.31552e-05 +++++++++++++++++++to 1.31562e-05
Heightened Def Con from 1.31562e-05 +++++++++++++++++++to 1.31572e-05
Heightened Def Con from 1.31572e-05 +++++++++++++++++++to 1.31582e-05
Heightened Def Con from 1.31582e-05 +++++++++++++++++++to 1.31592e-05
Heightened Def Con from 1.31592e-05 +++++++++++++++++++to 1.31602e-05
Heightened Def Con from 1.31602e-05 +++++++++++++++++++to 1.31612e-05
Heightened Def Con from 1.31612e-05 +++++++++++++++++++to 1.31622e-05
Heightened Def Con from 1.31622e-05 +++++++++++++++++++to 1.31632e-05
Heightened Def Con from 1.31632e-05 +++++++++++++++++++to 1.31642e-05
Heightened Def Con from 1.31642e-05 +++++++++++++++++++to 1.31652e-05
Heightened Def Con from 1.31652e-05 +++++++++++++++++++to 1.31662e-05
Heightened Def Con from 1.31662e-05 +++++++++++++++++++to 1.31672e-05
Heightened Def Con from 1.31672e-05 +++++++++++++++++++to 1.31682e-05
Heightened Def Con from 1.31682e-05 +++++++++++++++++++to 1.31692e-05
Heightened Def Con from 1.31692e-05 +++++++++++++++++++to 1.31702e-05
Heightened Def Con from 1.31702e-05 +++++++++++++++++++to 1.31712e-05
Heightened Def Con from 1.31712e-05 +++++++++++++++++++to 1.31722e-05
Heightened Def Con from 1.31722e-05 +++++++++++++++++++to 1.31732e-05
Heightened Def Con from 1.31732e-05 +++++++++++++++++++to 1.31742e-05
Heightened Def Con from 1.31742e-05 +++++++++++++++++++to 1.31752e-05
Heightened Def Con from 1.31752e-05 +++++++++++++++++++to 1.31762e-05
Heightened Def Con from 1.31762e-05 +++++++++++++++++++to 1.31772e-05
Heightened Def Con from 1.31772e-05 +++++++++++++++++++to 1.31782e-05
Heightened Def Con from 1.31782e-05 +++++++++++++++++++to 1.31792e-05
Heightened Def Con from 1.31792e-05 +++++++++++++++++++to 1.31802e-05
Heightened Def Con from 1.31802e-05 +++++++++++++++++++to 1.31812e-05
Heightened Def Con from 1.31812e-05 +++++++++++++++++++to 1.31822e-05
Heightened Def Con from 1.31822e-05 +++++++++++++++++++to 1.31832e-05
Heightened Def Con from 1.31832e-05 +++++++++++++++++++to 1.31842e-05
Heightened Def Con from 1.31842e-05 +++++++++++++++++++to 1.31852e-05
Heightened Def Con from 1.31852e-05 +++++++++++++++++++to 1.31862e-05
Heightened Def Con from 1.31862e-05 +++++++++++++++++++to 1.31872e-05
Heightened Def Con from 1.31872e-05 +++++++++++++++++++to 1.31882e-05
Heightened Def Con from 1.31882e-05 +++++++++++++++++++to 1.31892e-05
Heightened Def Con from 1.31892e-05 +++++++++++++++++++to 1.31902e-05
Heightened Def Con from 1.31902e-05 +++++++++++++++++++to 1.31912e-05
Heightened Def Con from 1.31912e-05 +++++++++++++++++++to 1.31922e-05
Heightened Def Con from 1.31922e-05 +++++++++++++++++++to 1.31932e-05
Heightened Def Con from 1.31932e-05 +++++++++++++++++++to 1.31942e-05
Heightened Def Con from 1.31942e-05 +++++++++++++++++++to 1.31952e-05
Heightened Def Con from 1.31952e-05 +++++++++++++++++++to 1.31962e-05
Heightened Def Con from 1.31962e-05 +++++++++++++++++++to 1.31972e-05
Heightened Def Con from 1.31972e-05 +++++++++++++++++++to 1.31982e-05
Heightened Def Con from 1.31982e-05 +++++++++++++++++++to 1.31992e-05
Heightened Def Con from 1.31992e-05 +++++++++++++++++++to 1.32002e-05
Heightened Def Con from 1.32002e-05 +++++++++++++++++++to 1.32012e-05
Heightened Def Con from 1.32012e-05 +++++++++++++++++++to 1.32022e-05
Heightened Def Con from 1.32022e-05 +++++++++++++++++++to 1.32032e-05
Heightened Def Con from 1.32032e-05 +++++++++++++++++++to 1.32042e-05
Heightened Def Con from 1.32042e-05 +++++++++++++++++++to 1.32052e-05
Heightened Def Con from 1.32052e-05 +++++++++++++++++++to 1.32062e-05
Heightened Def Con from 1.32062e-05 +++++++++++++++++++to 1.32072e-05
Heightened Def Con from 1.32072e-05 +++++++++++++++++++to 1.32082e-05
Heightened Def Con from 1.32082e-05 +++++++++++++++++++to 1.32092e-05
Heightened Def Con from 1.32092e-05 +++++++++++++++++++to 1.32102e-05
Heightened Def Con from 1.32102e-05 +++++++++++++++++++to 1.32112e-05
Heightened Def Con from 1.32112e-05 +++++++++++++++++++to 1.32122e-05
Heightened Def Con from 1.32122e-05 +++++++++++++++++++to 1.32132e-05
Heightened Def Con from 1.32132e-05 +++++++++++++++++++to 1.32142e-05
Heightened Def Con from 1.32142e-05 +++++++++++++++++++to 1.32152e-05
Heightened Def Con from 1.32152e-05 +++++++++++++++++++to 1.32162e-05
Heightened Def Con from 1.32162e-05 +++++++++++++++++++to 1.32172e-05
Heightened Def Con from 1.32172e-05 +++++++++++++++++++to 1.32182e-05
Heightened Def Con from 1.32182e-05 +++++++++++++++++++to 1.32192e-05
Heightened Def Con from 1.32192e-05 +++++++++++++++++++to 1.32202e-05
Heightened Def Con from 1.32202e-05 +++++++++++++++++++to 1.32212e-05
Heightened Def Con from 1.32212e-05 +++++++++++++++++++to 1.32222e-05
Heightened Def Con from 1.32222e-05 +++++++++++++++++++to 1.32232e-05
Heightened Def Con from 1.32232e-05 +++++++++++++++++++to 1.32242e-05
Heightened Def Con from 1.32242e-05 +++++++++++++++++++to 1.32252e-05
Heightened Def Con from 1.32252e-05 +++++++++++++++++++to 1.32262e-05
Heightened Def Con from 1.32262e-05 +++++++++++++++++++to 1.32272e-05
Heightened Def Con from 1.32272e-05 +++++++++++++++++++to 1.32282e-05
Heightened Def Con from 1.32282e-05 +++++++++++++++++++to 1.32292e-05
Heightened Def Con from 1.32292e-05 +++++++++++++++++++to 1.32302e-05
Heightened Def Con from 1.32302e-05 +++++++++++++++++++to 1.32312e-05
Heightened Def Con from 1.32312e-05 +++++++++++++++++++to 1.32322e-05
Heightened Def Con from 1.32322e-05 +++++++++++++++++++to 1.32332e-05
Heightened Def Con from 1.32332e-05 +++++++++++++++++++to 1.32342e-05
Heightened Def Con from 1.32342e-05 +++++++++++++++++++to 1.32352e-05
Heightened Def Con from 1.32352e-05 +++++++++++++++++++to 1.32362e-05
Heightened Def Con from 1.32362e-05 +++++++++++++++++++to 1.32372e-05
Heightened Def Con from 1.32372e-05 +++++++++++++++++++to 1.32382e-05
Heightened Def Con from 1.32382e-05 +++++++++++++++++++to 1.32392e-05
Heightened Def Con from 1.32392e-05 +++++++++++++++++++to 1.32402e-05
Heightened Def Con from 1.32402e-05 +++++++++++++++++++to 1.32412e-05
Heightened Def Con from 1.32412e-05 +++++++++++++++++++to 1.32422e-05
Heightened Def Con from 1.32422e-05 +++++++++++++++++++to 1.32432e-05
Heightened Def Con from 1.32432e-05 +++++++++++++++++++to 1.32442e-05
Heightened Def Con from 1.32442e-05 +++++++++++++++++++to 1.32452e-05
Heightened Def Con from 1.32452e-05 +++++++++++++++++++to 1.32462e-05
Heightened Def Con from 1.32462e-05 +++++++++++++++++++to 1.32472e-05
Heightened Def Con from 1.32472e-05 +++++++++++++++++++to 1.32482e-05
Heightened Def Con from 1.32482e-05 +++++++++++++++++++to 1.32492e-05
Heightened Def Con from 1.32492e-05 +++++++++++++++++++to 1.32502e-05
Heightened Def Con from 1.32502e-05 +++++++++++++++++++to 1.32512e-05
Heightened Def Con from 1.32512e-05 +++++++++++++++++++to 1.32522e-05
Heightened Def Con from 1.32522e-05 +++++++++++++++++++to 1.32532e-05
Heightened Def Con from 1.32532e-05 +++++++++++++++++++to 1.32542e-05
Heightened Def Con from 1.32542e-05 +++++++++++++++++++to 1.32552e-05
Heightened Def Con from 1.32552e-05 +++++++++++++++++++to 1.32562e-05
Heightened Def Con from 1.32562e-05 +++++++++++++++++++to 1.32572e-05
Heightened Def Con from 1.32572e-05 +++++++++++++++++++to 1.32582e-05
Heightened Def Con from 1.32582e-05 +++++++++++++++++++to 1.32592e-05
Heightened Def Con from 1.32592e-05 +++++++++++++++++++to 1.32602e-05
Heightened Def Con from 1.32602e-05 +++++++++++++++++++to 1.32612e-05
Heightened Def Con from 1.32612e-05 +++++++++++++++++++to 1.32622e-05
Heightened Def Con from 1.32622e-05 +++++++++++++++++++to 1.32632e-05
Heightened Def Con from 1.32632e-05 +++++++++++++++++++to 1.32642e-05
Heightened Def Con from 1.32642e-05 +++++++++++++++++++to 1.32652e-05
Heightened Def Con from 1.32652e-05 +++++++++++++++++++to 1.32662e-05
Heightened Def Con from 1.32662e-05 +++++++++++++++++++to 1.32672e-05
Heightened Def Con from 1.32672e-05 +++++++++++++++++++to 1.32682e-05
Heightened Def Con from 1.32682e-05 +++++++++++++++++++to 1.32692e-05
Heightened Def Con from 1.32692e-05 +++++++++++++++++++to 1.32702e-05
Heightened Def Con from 1.32702e-05 +++++++++++++++++++to 1.32712e-05
Heightened Def Con from 1.32712e-05 +++++++++++++++++++to 1.32722e-05
Heightened Def Con from 1.32722e-05 +++++++++++++++++++to 1.32732e-05
Heightened Def Con from 1.32732e-05 +++++++++++++++++++to 1.32742e-05
Heightened Def Con from 1.32742e-05 +++++++++++++++++++to 1.32752e-05
Heightened Def Con from 1.32752e-05 +++++++++++++++++++to 1.32762e-05
Heightened Def Con from 1.32762e-05 +++++++++++++++++++to 1.32772e-05
Heightened Def Con from 1.32772e-05 +++++++++++++++++++to 1.32782e-05
Heightened Def Con from 1.32782e-05 +++++++++++++++++++to 1.32792e-05
Heightened Def Con from 1.32792e-05 +++++++++++++++++++to 1.32802e-05
Heightened Def Con from 1.32802e-05 +++++++++++++++++++to 1.32812e-05
Heightened Def Con from 1.32812e-05 +++++++++++++++++++to 1.32822e-05
Heightened Def Con from 1.32822e-05 +++++++++++++++++++to 1.32832e-05
Heightened Def Con from 1.32832e-05 +++++++++++++++++++to 1.32842e-05
Heightened Def Con from 1.32842e-05 +++++++++++++++++++to 1.32852e-05
Heightened Def Con from 1.32852e-05 +++++++++++++++++++to 1.32862e-05
Heightened Def Con from 1.32862e-05 +++++++++++++++++++to 1.32872e-05
Heightened Def Con from 1.32872e-05 +++++++++++++++++++to 1.32882e-05
Heightened Def Con from 1.32882e-05 +++++++++++++++++++to 1.32892e-05
Heightened Def Con from 1.32892e-05 +++++++++++++++++++to 1.32902e-05
Heightened Def Con from 1.32902e-05 +++++++++++++++++++to 1.32912e-05
Heightened Def Con from 1.32912e-05 +++++++++++++++++++to 1.32922e-05
Heightened Def Con from 1.32922e-05 +++++++++++++++++++to 1.32932e-05
Heightened Def Con from 1.32932e-05 +++++++++++++++++++to 1.32942e-05
Heightened Def Con from 1.32942e-05 +++++++++++++++++++to 1.32952e-05
Heightened Def Con from 1.32952e-05 +++++++++++++++++++to 1.32962e-05
Heightened Def Con from 1.32962e-05 +++++++++++++++++++to 1.32972e-05
Heightened Def Con from 1.32972e-05 +++++++++++++++++++to 1.32982e-05
Heightened Def Con from 1.32982e-05 +++++++++++++++++++to 1.32992e-05
Heightened Def Con from 1.32992e-05 +++++++++++++++++++to 1.33002e-05
Heightened Def Con from 1.33002e-05 +++++++++++++++++++to 1.33012e-05
Heightened Def Con from 1.33012e-05 +++++++++++++++++++to 1.33022e-05
Heightened Def Con from 1.33022e-05 +++++++++++++++++++to 1.33032e-05
Heightened Def Con from 1.33032e-05 +++++++++++++++++++to 1.33042e-05
Heightened Def Con from 1.33042e-05 +++++++++++++++++++to 1.33052e-05
Heightened Def Con from 1.33052e-05 +++++++++++++++++++to 1.33062e-05
Heightened Def Con from 1.33062e-05 +++++++++++++++++++to 1.33072e-05
Heightened Def Con from 1.33072e-05 +++++++++++++++++++to 1.33082e-05
Heightened Def Con from 1.33082e-05 +++++++++++++++++++to 1.33092e-05
Heightened Def Con from 1.33092e-05 +++++++++++++++++++to 1.33102e-05
Heightened Def Con from 1.33102e-05 +++++++++++++++++++to 1.33112e-05
Heightened Def Con from 1.33112e-05 +++++++++++++++++++to 1.33122e-05
Heightened Def Con from 1.33122e-05 +++++++++++++++++++to 1.33132e-05
Heightened Def Con from 1.33132e-05 +++++++++++++++++++to 1.33142e-05
Heightened Def Con from 1.33142e-05 +++++++++++++++++++to 1.33152e-05
Heightened Def Con from 1.33152e-05 +++++++++++++++++++to 1.33162e-05
Heightened Def Con from 1.33162e-05 +++++++++++++++++++to 1.33172e-05
Heightened Def Con from 1.33172e-05 +++++++++++++++++++to 1.33182e-05
Heightened Def Con from 1.33182e-05 +++++++++++++++++++to 1.33192e-05
Heightened Def Con from 1.33192e-05 +++++++++++++++++++to 1.33202e-05
Heightened Def Con from 1.33202e-05 +++++++++++++++++++to 1.33212e-05
Heightened Def Con from 1.33212e-05 +++++++++++++++++++to 1.33222e-05
Heightened Def Con from 1.33222e-05 +++++++++++++++++++to 1.33232e-05
Heightened Def Con from 1.33232e-05 +++++++++++++++++++to 1.33242e-05
Heightened Def Con from 1.33242e-05 +++++++++++++++++++to 1.33252e-05
Heightened Def Con from 1.33252e-05 +++++++++++++++++++to 1.33262e-05
Heightened Def Con from 1.33262e-05 +++++++++++++++++++to 1.33272e-05
Heightened Def Con from 1.33272e-05 +++++++++++++++++++to 1.33282e-05
Heightened Def Con from 1.33282e-05 +++++++++++++++++++to 1.33292e-05
Heightened Def Con from 1.33292e-05 +++++++++++++++++++to 1.33302e-05
Heightened Def Con from 1.33302e-05 +++++++++++++++++++to 1.33312e-05
Heightened Def Con from 1.33312e-05 +++++++++++++++++++to 1.33322e-05
Heightened Def Con from 1.33322e-05 +++++++++++++++++++to 1.33332e-05
Heightened Def Con from 1.33332e-05 +++++++++++++++++++to 1.33342e-05
Heightened Def Con from 1.33342e-05 +++++++++++++++++++to 1.33352e-05
Heightened Def Con from 1.33352e-05 +++++++++++++++++++to 1.33362e-05
Heightened Def Con from 1.33362e-05 +++++++++++++++++++to 1.33372e-05
Heightened Def Con from 1.33372e-05 +++++++++++++++++++to 1.33382e-05
Heightened Def Con from 1.33382e-05 +++++++++++++++++++to 1.33392e-05
Heightened Def Con from 1.33392e-05 +++++++++++++++++++to 1.33402e-05
Heightened Def Con from 1.33402e-05 +++++++++++++++++++to 1.33412e-05
Heightened Def Con from 1.33412e-05 +++++++++++++++++++to 1.33422e-05
Heightened Def Con from 1.33422e-05 +++++++++++++++++++to 1.33432e-05
Heightened Def Con from 1.33432e-05 +++++++++++++++++++to 1.33442e-05
Heightened Def Con from 1.33442e-05 +++++++++++++++++++to 1.33452e-05
Heightened Def Con from 1.33452e-05 +++++++++++++++++++to 1.33462e-05
Heightened Def Con from 1.33462e-05 +++++++++++++++++++to 1.33472e-05
Heightened Def Con from 1.33472e-05 +++++++++++++++++++to 1.33482e-05
Heightened Def Con from 1.33482e-05 +++++++++++++++++++to 1.33492e-05
Heightened Def Con from 1.33492e-05 +++++++++++++++++++to 1.33502e-05
Heightened Def Con from 1.33502e-05 +++++++++++++++++++to 1.33512e-05
Heightened Def Con from 1.33512e-05 +++++++++++++++++++to 1.33522e-05
Heightened Def Con from 1.33522e-05 +++++++++++++++++++to 1.33532e-05
Heightened Def Con from 1.33532e-05 +++++++++++++++++++to 1.33542e-05
Heightened Def Con from 1.33542e-05 +++++++++++++++++++to 1.33552e-05
Heightened Def Con from 1.33552e-05 +++++++++++++++++++to 1.33562e-05
Heightened Def Con from 1.33562e-05 +++++++++++++++++++to 1.33572e-05
Heightened Def Con from 1.33572e-05 +++++++++++++++++++to 1.33582e-05
Heightened Def Con from 1.33582e-05 +++++++++++++++++++to 1.33592e-05
Heightened Def Con from 1.33592e-05 +++++++++++++++++++to 1.33602e-05
Heightened Def Con from 1.33602e-05 +++++++++++++++++++to 1.33612e-05
Heightened Def Con from 1.33612e-05 +++++++++++++++++++to 1.33622e-05
Heightened Def Con from 1.33622e-05 +++++++++++++++++++to 1.33632e-05
Heightened Def Con from 1.33632e-05 +++++++++++++++++++to 1.33642e-05
Heightened Def Con from 1.33642e-05 +++++++++++++++++++to 1.33652e-05
Heightened Def Con from 1.33652e-05 +++++++++++++++++++to 1.33662e-05
Heightened Def Con from 1.33662e-05 +++++++++++++++++++to 1.33672e-05
Heightened Def Con from 1.33672e-05 +++++++++++++++++++to 1.33682e-05
Heightened Def Con from 1.33682e-05 +++++++++++++++++++to 1.33692e-05
Heightened Def Con from 1.33692e-05 +++++++++++++++++++to 1.33702e-05
Heightened Def Con from 1.33702e-05 +++++++++++++++++++to 1.33712e-05
Heightened Def Con from 1.33712e-05 +++++++++++++++++++to 1.33722e-05
Heightened Def Con from 1.33722e-05 +++++++++++++++++++to 1.33732e-05
Heightened Def Con from 1.33732e-05 +++++++++++++++++++to 1.33742e-05
Heightened Def Con from 1.33742e-05 +++++++++++++++++++to 1.33752e-05
Heightened Def Con from 1.33752e-05 +++++++++++++++++++to 1.33762e-05
Heightened Def Con from 1.33762e-05 +++++++++++++++++++to 1.33772e-05
Heightened Def Con from 1.33772e-05 +++++++++++++++++++to 1.33782e-05
Heightened Def Con from 1.33782e-05 +++++++++++++++++++to 1.33792e-05
Heightened Def Con from 1.33792e-05 +++++++++++++++++++to 1.33802e-05
Heightened Def Con from 1.33802e-05 +++++++++++++++++++to 1.33812e-05
Heightened Def Con from 1.33812e-05 +++++++++++++++++++to 1.33822e-05
Heightened Def Con from 1.33822e-05 +++++++++++++++++++to 1.33832e-05
Heightened Def Con from 1.33832e-05 +++++++++++++++++++to 1.33842e-05
Heightened Def Con from 1.33842e-05 +++++++++++++++++++to 1.33852e-05
Heightened Def Con from 1.33852e-05 +++++++++++++++++++to 1.33862e-05
Heightened Def Con from 1.33862e-05 +++++++++++++++++++to 1.33872e-05
Heightened Def Con from 1.33872e-05 +++++++++++++++++++to 1.33882e-05
Heightened Def Con from 1.33882e-05 +++++++++++++++++++to 1.33892e-05
Heightened Def Con from 1.33892e-05 +++++++++++++++++++to 1.33902e-05
Heightened Def Con from 1.33902e-05 +++++++++++++++++++to 1.33912e-05
Heightened Def Con from 1.33912e-05 +++++++++++++++++++to 1.33922e-05
Heightened Def Con from 1.33922e-05 +++++++++++++++++++to 1.33932e-05
Heightened Def Con from 1.33932e-05 +++++++++++++++++++to 1.33942e-05
Heightened Def Con from 1.33942e-05 +++++++++++++++++++to 1.33952e-05
Heightened Def Con from 1.33952e-05 +++++++++++++++++++to 1.33962e-05
Heightened Def Con from 1.33962e-05 +++++++++++++++++++to 1.33972e-05
Heightened Def Con from 1.33972e-05 +++++++++++++++++++to 1.33982e-05
Heightened Def Con from 1.33982e-05 +++++++++++++++++++to 1.33992e-05
Heightened Def Con from 1.33992e-05 +++++++++++++++++++to 1.34002e-05
Heightened Def Con from 1.34002e-05 +++++++++++++++++++to 1.34012e-05
Heightened Def Con from 1.34012e-05 +++++++++++++++++++to 1.34022e-05
Heightened Def Con from 1.34022e-05 +++++++++++++++++++to 1.34032e-05
Heightened Def Con from 1.34032e-05 +++++++++++++++++++to 1.34042e-05
Heightened Def Con from 1.34042e-05 +++++++++++++++++++to 1.34052e-05
Heightened Def Con from 1.34052e-05 +++++++++++++++++++to 1.34062e-05
Heightened Def Con from 1.34062e-05 +++++++++++++++++++to 1.34072e-05
Heightened Def Con from 1.34072e-05 +++++++++++++++++++to 1.34082e-05
Heightened Def Con from 1.34082e-05 +++++++++++++++++++to 1.34092e-05
Heightened Def Con from 1.34092e-05 +++++++++++++++++++to 1.34102e-05
Heightened Def Con from 1.34102e-05 +++++++++++++++++++to 1.34112e-05
Heightened Def Con from 1.34112e-05 +++++++++++++++++++to 1.34122e-05
Heightened Def Con from 1.34122e-05 +++++++++++++++++++to 1.34132e-05
Heightened Def Con from 1.34132e-05 +++++++++++++++++++to 1.34142e-05
Heightened Def Con from 1.34142e-05 +++++++++++++++++++to 1.34152e-05
Heightened Def Con from 1.34152e-05 +++++++++++++++++++to 1.34162e-05
Heightened Def Con from 1.34162e-05 +++++++++++++++++++to 1.34172e-05
Heightened Def Con from 1.34172e-05 +++++++++++++++++++to 1.34182e-05
Heightened Def Con from 1.34182e-05 +++++++++++++++++++to 1.34192e-05
Heightened Def Con from 1.34192e-05 +++++++++++++++++++to 1.34202e-05
Heightened Def Con from 1.34202e-05 +++++++++++++++++++to 1.34212e-05
Heightened Def Con from 1.34212e-05 +++++++++++++++++++to 1.34222e-05
Heightened Def Con from 1.34222e-05 +++++++++++++++++++to 1.34232e-05
Heightened Def Con from 1.34232e-05 +++++++++++++++++++to 1.34242e-05
Heightened Def Con from 1.34242e-05 +++++++++++++++++++to 1.34252e-05
Heightened Def Con from 1.34252e-05 +++++++++++++++++++to 1.34262e-05
Heightened Def Con from 1.34262e-05 +++++++++++++++++++to 1.34272e-05
Heightened Def Con from 1.34272e-05 +++++++++++++++++++to 1.34282e-05
Heightened Def Con from 1.34282e-05 +++++++++++++++++++to 1.34292e-05
Heightened Def Con from 1.34292e-05 +++++++++++++++++++to 1.34302e-05
Heightened Def Con from 1.34302e-05 +++++++++++++++++++to 1.34312e-05
Heightened Def Con from 1.34312e-05 +++++++++++++++++++to 1.34322e-05
Heightened Def Con from 1.34322e-05 +++++++++++++++++++to 1.34332e-05
Heightened Def Con from 1.34332e-05 +++++++++++++++++++to 1.34342e-05
Heightened Def Con from 1.34342e-05 +++++++++++++++++++to 1.34352e-05
Heightened Def Con from 1.34352e-05 +++++++++++++++++++to 1.34362e-05
Heightened Def Con from 1.34362e-05 +++++++++++++++++++to 1.34372e-05
Heightened Def Con from 1.34372e-05 +++++++++++++++++++to 1.34382e-05
Heightened Def Con from 1.34382e-05 +++++++++++++++++++to 1.34392e-05
Heightened Def Con from 1.34392e-05 +++++++++++++++++++to 1.34402e-05
Heightened Def Con from 1.34402e-05 +++++++++++++++++++to 1.34412e-05
Heightened Def Con from 1.34412e-05 +++++++++++++++++++to 1.34422e-05
Heightened Def Con from 1.34422e-05 +++++++++++++++++++to 1.34432e-05
Heightened Def Con from 1.34432e-05 +++++++++++++++++++to 1.34442e-05
Heightened Def Con from 1.34442e-05 +++++++++++++++++++to 1.34452e-05
Heightened Def Con from 1.34452e-05 +++++++++++++++++++to 1.34462e-05
Heightened Def Con from 1.34462e-05 +++++++++++++++++++to 1.34472e-05
Heightened Def Con from 1.34472e-05 +++++++++++++++++++to 1.34482e-05
Heightened Def Con from 1.34482e-05 +++++++++++++++++++to 1.34492e-05
Heightened Def Con from 1.34492e-05 +++++++++++++++++++to 1.34502e-05
Heightened Def Con from 1.34502e-05 +++++++++++++++++++to 1.34512e-05
Heightened Def Con from 1.34512e-05 +++++++++++++++++++to 1.34522e-05
Heightened Def Con from 1.34522e-05 +++++++++++++++++++to 1.34532e-05
Heightened Def Con from 1.34532e-05 +++++++++++++++++++to 1.34542e-05
Heightened Def Con from 1.34542e-05 +++++++++++++++++++to 1.34552e-05
Heightened Def Con from 1.34552e-05 +++++++++++++++++++to 1.34562e-05
Heightened Def Con from 1.34562e-05 +++++++++++++++++++to 1.34572e-05
Heightened Def Con from 1.34572e-05 +++++++++++++++++++to 1.34582e-05
Heightened Def Con from 1.34582e-05 +++++++++++++++++++to 1.34592e-05
Heightened Def Con from 1.34592e-05 +++++++++++++++++++to 1.34602e-05
Heightened Def Con from 1.34602e-05 +++++++++++++++++++to 1.34612e-05
Heightened Def Con from 1.34612e-05 +++++++++++++++++++to 1.34622e-05
Heightened Def Con from 1.34622e-05 +++++++++++++++++++to 1.34632e-05
Heightened Def Con from 1.34632e-05 +++++++++++++++++++to 1.34642e-05
Heightened Def Con from 1.34642e-05 +++++++++++++++++++to 1.34652e-05
Heightened Def Con from 1.34652e-05 +++++++++++++++++++to 1.34662e-05
Heightened Def Con from 1.34662e-05 +++++++++++++++++++to 1.34672e-05
Heightened Def Con from 1.34672e-05 +++++++++++++++++++to 1.34682e-05
Heightened Def Con from 1.34682e-05 +++++++++++++++++++to 1.34692e-05
Heightened Def Con from 1.34692e-05 +++++++++++++++++++to 1.34702e-05
Heightened Def Con from 1.34702e-05 +++++++++++++++++++to 1.34712e-05
Heightened Def Con from 1.34712e-05 +++++++++++++++++++to 1.34722e-05
Heightened Def Con from 1.34722e-05 +++++++++++++++++++to 1.34732e-05
Heightened Def Con from 1.34732e-05 +++++++++++++++++++to 1.34742e-05
Heightened Def Con from 1.34742e-05 +++++++++++++++++++to 1.34752e-05
Heightened Def Con from 1.34752e-05 +++++++++++++++++++to 1.34762e-05
Heightened Def Con from 1.34762e-05 +++++++++++++++++++to 1.34772e-05
Heightened Def Con from 1.34772e-05 +++++++++++++++++++to 1.34782e-05
Heightened Def Con from 1.34782e-05 +++++++++++++++++++to 1.34792e-05
Heightened Def Con from 1.34792e-05 +++++++++++++++++++to 1.34802e-05
Heightened Def Con from 1.34802e-05 +++++++++++++++++++to 1.34812e-05
Heightened Def Con from 1.34812e-05 +++++++++++++++++++to 1.34822e-05
Heightened Def Con from 1.34822e-05 +++++++++++++++++++to 1.34832e-05
Heightened Def Con from 1.34832e-05 +++++++++++++++++++to 1.34842e-05
Heightened Def Con from 1.34842e-05 +++++++++++++++++++to 1.34852e-05
Heightened Def Con from 1.34852e-05 +++++++++++++++++++to 1.34862e-05
Heightened Def Con from 1.34862e-05 +++++++++++++++++++to 1.34872e-05
Heightened Def Con from 1.34872e-05 +++++++++++++++++++to 1.34882e-05
Heightened Def Con from 1.34882e-05 +++++++++++++++++++to 1.34892e-05
Heightened Def Con from 1.34892e-05 +++++++++++++++++++to 1.34902e-05
Heightened Def Con from 1.34902e-05 +++++++++++++++++++to 1.34912e-05
Heightened Def Con from 1.34912e-05 +++++++++++++++++++to 1.34922e-05
Heightened Def Con from 1.34922e-05 +++++++++++++++++++to 1.34932e-05
Heightened Def Con from 1.34932e-05 +++++++++++++++++++to 1.34942e-05
Heightened Def Con from 1.34942e-05 +++++++++++++++++++to 1.34952e-05
Heightened Def Con from 1.34952e-05 +++++++++++++++++++to 1.34962e-05
Heightened Def Con from 1.34962e-05 +++++++++++++++++++to 1.34972e-05
Heightened Def Con from 1.34972e-05 +++++++++++++++++++to 1.34982e-05
Heightened Def Con from 1.34982e-05 +++++++++++++++++++to 1.34992e-05
Heightened Def Con from 1.34992e-05 +++++++++++++++++++to 1.35002e-05
Heightened Def Con from 1.35002e-05 +++++++++++++++++++to 1.35012e-05
Heightened Def Con from 1.35012e-05 +++++++++++++++++++to 1.35022e-05
Heightened Def Con from 1.35022e-05 +++++++++++++++++++to 1.35032e-05
Heightened Def Con from 1.35032e-05 +++++++++++++++++++to 1.35042e-05
Heightened Def Con from 1.35042e-05 +++++++++++++++++++to 1.35052e-05
Heightened Def Con from 1.35052e-05 +++++++++++++++++++to 1.35062e-05
Heightened Def Con from 1.35062e-05 +++++++++++++++++++to 1.35072e-05
Heightened Def Con from 1.35072e-05 +++++++++++++++++++to 1.35082e-05
Heightened Def Con from 1.35082e-05 +++++++++++++++++++to 1.35092e-05
Heightened Def Con from 1.35092e-05 +++++++++++++++++++to 1.35102e-05
Heightened Def Con from 1.35102e-05 +++++++++++++++++++to 1.35112e-05
Heightened Def Con from 1.35112e-05 +++++++++++++++++++to 1.35122e-05
Heightened Def Con from 1.35122e-05 +++++++++++++++++++to 1.35132e-05
Heightened Def Con from 1.35132e-05 +++++++++++++++++++to 1.35142e-05
Heightened Def Con from 1.35142e-05 +++++++++++++++++++to 1.35152e-05
Heightened Def Con from 1.35152e-05 +++++++++++++++++++to 1.35162e-05
Heightened Def Con from 1.35162e-05 +++++++++++++++++++to 1.35172e-05
Heightened Def Con from 1.35172e-05 +++++++++++++++++++to 1.35182e-05
Heightened Def Con from 1.35182e-05 +++++++++++++++++++to 1.35192e-05
Heightened Def Con from 1.35192e-05 +++++++++++++++++++to 1.35202e-05
Heightened Def Con from 1.35202e-05 +++++++++++++++++++to 1.35212e-05
Heightened Def Con from 1.35212e-05 +++++++++++++++++++to 1.35222e-05
Heightened Def Con from 1.35222e-05 +++++++++++++++++++to 1.35232e-05
Heightened Def Con from 1.35232e-05 +++++++++++++++++++to 1.35242e-05
Heightened Def Con from 1.35242e-05 +++++++++++++++++++to 1.35252e-05
Heightened Def Con from 1.35252e-05 +++++++++++++++++++to 1.35262e-05
Heightened Def Con from 1.35262e-05 +++++++++++++++++++to 1.35272e-05
Heightened Def Con from 1.35272e-05 +++++++++++++++++++to 1.35282e-05
Heightened Def Con from 1.35282e-05 +++++++++++++++++++to 1.35292e-05
Heightened Def Con from 1.35292e-05 +++++++++++++++++++to 1.35302e-05
Heightened Def Con from 1.35302e-05 +++++++++++++++++++to 1.35312e-05
Heightened Def Con from 1.35312e-05 +++++++++++++++++++to 1.35322e-05
Heightened Def Con from 1.35322e-05 +++++++++++++++++++to 1.35332e-05
Heightened Def Con from 1.35332e-05 +++++++++++++++++++to 1.35342e-05
Heightened Def Con from 1.35342e-05 +++++++++++++++++++to 1.35352e-05
Heightened Def Con from 1.35352e-05 +++++++++++++++++++to 1.35362e-05
Heightened Def Con from 1.35362e-05 +++++++++++++++++++to 1.35372e-05
Heightened Def Con from 1.35372e-05 +++++++++++++++++++to 1.35382e-05
[...]
Heightened Def Con from 1.72122e-05 ++++++++++++++++++to 1.72132e-05
Heightened Def Con from 1.72132e-05 ++++++++++++++++++to 1.72142e-05
Heightened Def Con from 1.72142e-05 ++++++++++++++++++to 1.72152e-05
Heightened Def Con from 1.72152e-05 ++++++++++++++++++to 1.72162e-05
Heightened Def Con from 1.72162e-05 ++++++++++++++++++to 1.72172e-05
Heightened Def Con from 1.72172e-05 ++++++++++++++++++to 1.72182e-05
Heightened Def Con from 1.72182e-05 ++++++++++++++++++to 1.72192e-05
Heightened Def Con from 1.72192e-05 ++++++++++++++++++to 1.72202e-05
Heightened Def Con from 1.72202e-05 ++++++++++++++++++to 1.72212e-05
Heightened Def Con from 1.72212e-05 ++++++++++++++++++to 1.72222e-05
Heightened Def Con from 1.72222e-05 ++++++++++++++++++to 1.72232e-05
Heightened Def Con from 1.72232e-05 ++++++++++++++++++to 1.72242e-05
Heightened Def Con from 1.72242e-05 ++++++++++++++++++to 1.72252e-05
Heightened Def Con from 1.72252e-05 ++++++++++++++++++to 1.72262e-05
Heightened Def Con from 1.72262e-05 ++++++++++++++++++to 1.72272e-05
Heightened Def Con from 1.72272e-05 ++++++++++++++++++to 1.72282e-05
Heightened Def Con from 1.72282e-05 ++++++++++++++++++to 1.72292e-05
Heightened Def Con from 1.72292e-05 ++++++++++++++++++to 1.72302e-05
Heightened Def Con from 1.72302e-05 ++++++++++++++++++to 1.72312e-05
Heightened Def Con from 1.72312e-05 ++++++++++++++++++to 1.72322e-05
Heightened Def Con from 1.72322e-05 ++++++++++++++++++to 1.72332e-05
Heightened Def Con from 1.72332e-05 ++++++++++++++++++to 1.72342e-05
Heightened Def Con from 1.72342e-05 ++++++++++++++++++to 1.72352e-05
Heightened Def Con from 1.72352e-05 ++++++++++++++++++to 1.72362e-05
Heightened Def Con from 1.72362e-05 ++++++++++++++++++to 1.72372e-05
Heightened Def Con from 1.72372e-05 ++++++++++++++++++to 1.72382e-05
Heightened Def Con from 1.72382e-05 ++++++++++++++++++to 1.72392e-05
Heightened Def Con from 1.72392e-05 ++++++++++++++++++to 1.72402e-05
Heightened Def Con from 1.72402e-05 ++++++++++++++++++to 1.72412e-05
Heightened Def Con from 1.72412e-05 ++++++++++++++++++to 1.72422e-05
Heightened Def Con from 1.72422e-05 ++++++++++++++++++to 1.72432e-05
Heightened Def Con from 1.72432e-05 ++++++++++++++++++to 1.72442e-05
Heightened Def Con from 1.72442e-05 ++++++++++++++++++to 1.72452e-05
Heightened Def Con from 1.72452e-05 ++++++++++++++++++to 1.72462e-05
Heightened Def Con from 1.72462e-05 ++++++++++++++++++to 1.72472e-05
Heightened Def Con from 1.72472e-05 ++++++++++++++++++to 1.72482e-05
Heightened Def Con from 1.72482e-05 ++++++++++++++++++to 1.72492e-05
Heightened Def Con from 1.72492e-05 ++++++++++++++++++to 1.72502e-05
Heightened Def Con from 1.72502e-05 ++++++++++++++++++to 1.72512e-05
Heightened Def Con from 1.72512e-05 ++++++++++++++++++to 1.72522e-05
Heightened Def Con from 1.72522e-05 ++++++++++++++++++to 1.72532e-05
Heightened Def Con from 1.72532e-05 ++++++++++++++++++to 1.72542e-05
Heightened Def Con from 1.72542e-05 ++++++++++++++++++to 1.72552e-05
Heightened Def Con from 1.72552e-05 ++++++++++++++++++to 1.72562e-05
Heightened Def Con from 1.72562e-05 ++++++++++++++++++to 1.72572e-05
Heightened Def Con from 1.72572e-05 ++++++++++++++++++to 1.72582e-05
Heightened Def Con from 1.72582e-05 ++++++++++++++++++to 1.72592e-05
Heightened Def Con from 1.72592e-05 ++++++++++++++++++to 1.72602e-05
Heightened Def Con from 1.72602e-05 ++++++++++++++++++to 1.72612e-05
Heightened Def Con from 1.72612e-05 ++++++++++++++++++to 1.72622e-05
Heightened Def Con from 1.72622e-05 ++++++++++++++++++to 1.72632e-05
Heightened Def Con from 1.72632e-05 ++++++++++++++++++to 1.72642e-05
Heightened Def Con from 1.72642e-05 ++++++++++++++++++to 1.72652e-05
Heightened Def Con from 1.72652e-05 ++++++++++++++++++to 1.72662e-05
Heightened Def Con from 1.72662e-05 ++++++++++++++++++to 1.72672e-05
Heightened Def Con from 1.72672e-05 ++++++++++++++++++to 1.72682e-05
Heightened Def Con from 1.72682e-05 ++++++++++++++++++to 1.72692e-05
Heightened Def Con from 1.72692e-05 ++++++++++++++++++to 1.72702e-05
Heightened Def Con from 1.72702e-05 ++++++++++++++++++to 1.72712e-05
Heightened Def Con from 1.72712e-05 ++++++++++++++++++to 1.72722e-05
Heightened Def Con from 1.72722e-05 ++++++++++++++++++to 1.72732e-05
Heightened Def Con from 1.72732e-05 ++++++++++++++++++to 1.72742e-05
Heightened Def Con from 1.72742e-05 ++++++++++++++++++to 1.72752e-05
Heightened Def Con from 1.72752e-05 ++++++++++++++++++to 1.72762e-05
Heightened Def Con from 1.72762e-05 ++++++++++++++++++to 1.72772e-05
Heightened Def Con from 1.72772e-05 ++++++++++++++++++to 1.72782e-05
Heightened Def Con from 1.72782e-05 ++++++++++++++++++to 1.72792e-05
Heightened Def Con from 1.72792e-05 ++++++++++++++++++to 1.72802e-05
Heightened Def Con from 1.72802e-05 ++++++++++++++++++to 1.72812e-05
Heightened Def Con from 1.72812e-05 ++++++++++++++++++to 1.72822e-05
Heightened Def Con from 1.72822e-05 ++++++++++++++++++to 1.72832e-05
Heightened Def Con from 1.72832e-05 ++++++++++++++++++to 1.72842e-05
Heightened Def Con from 1.72842e-05 ++++++++++++++++++to 1.72852e-05
Heightened Def Con from 1.72852e-05 ++++++++++++++++++to 1.72862e-05
Heightened Def Con from 1.72862e-05 ++++++++++++++++++to 1.72872e-05
Heightened Def Con from 1.72872e-05 ++++++++++++++++++to 1.72882e-05
Heightened Def Con from 1.72882e-05 ++++++++++++++++++to 1.72892e-05
Heightened Def Con from 1.72892e-05 ++++++++++++++++++to 1.72902e-05
Heightened Def Con from 1.72902e-05 ++++++++++++++++++to 1.72912e-05
Heightened Def Con from 1.72912e-05 ++++++++++++++++++to 1.72922e-05
Heightened Def Con from 1.72922e-05 ++++++++++++++++++to 1.72932e-05
Heightened Def Con from 1.72932e-05 ++++++++++++++++++to 1.72942e-05
Heightened Def Con from 1.72942e-05 ++++++++++++++++++to 1.72952e-05
Heightened Def Con from 1.72952e-05 ++++++++++++++++++to 1.72962e-05
Heightened Def Con from 1.72962e-05 ++++++++++++++++++to 1.72972e-05
Heightened Def Con from 1.72972e-05 ++++++++++++++++++to 1.72982e-05
Heightened Def Con from 1.72982e-05 ++++++++++++++++++to 1.72992e-05
Heightened Def Con from 1.72992e-05 ++++++++++++++++++to 1.73002e-05
Heightened Def Con from 1.73002e-05 ++++++++++++++++++to 1.73012e-05
Heightened Def Con from 1.73012e-05 ++++++++++++++++++to 1.73022e-05
Heightened Def Con from 1.73022e-05 ++++++++++++++++++to 1.73032e-05
Heightened Def Con from 1.73032e-05 ++++++++++++++++++to 1.73042e-05
Heightened Def Con from 1.73042e-05 ++++++++++++++++++to 1.73052e-05
Heightened Def Con from 1.73052e-05 ++++++++++++++++++to 1.73062e-05
Heightened Def Con from 1.73062e-05 ++++++++++++++++++to 1.73072e-05
Heightened Def Con from 1.73072e-05 ++++++++++++++++++to 1.73082e-05
Heightened Def Con from 1.73082e-05 ++++++++++++++++++to 1.73092e-05
Heightened Def Con from 1.73092e-05 ++++++++++++++++++to 1.73102e-05
Heightened Def Con from 1.73102e-05 ++++++++++++++++++to 1.73112e-05
Heightened Def Con from 1.73112e-05 ++++++++++++++++++to 1.73122e-05
Heightened Def Con from 1.73122e-05 ++++++++++++++++++to 1.73132e-05
Heightened Def Con from 1.73132e-05 ++++++++++++++++++to 1.73142e-05
Heightened Def Con from 1.73142e-05 ++++++++++++++++++to 1.73152e-05
Heightened Def Con from 1.73152e-05 ++++++++++++++++++to 1.73162e-05
Heightened Def Con from 1.73162e-05 ++++++++++++++++++to 1.73172e-05
Heightened Def Con from 1.73172e-05 ++++++++++++++++++to 1.73182e-05
Heightened Def Con from 1.73182e-05 ++++++++++++++++++to 1.73192e-05
Heightened Def Con from 1.73192e-05 ++++++++++++++++++to 1.73202e-05
Heightened Def Con from 1.73202e-05 ++++++++++++++++++to 1.73212e-05
Heightened Def Con from 1.73212e-05 ++++++++++++++++++to 1.73222e-05
Heightened Def Con from 1.73222e-05 ++++++++++++++++++to 1.73232e-05
Heightened Def Con from 1.73232e-05 ++++++++++++++++++to 1.73242e-05
Heightened Def Con from 1.73242e-05 ++++++++++++++++++to 1.73252e-05
Heightened Def Con from 1.73252e-05 ++++++++++++++++++to 1.73262e-05
Heightened Def Con from 1.73262e-05 ++++++++++++++++++to 1.73272e-05
Heightened Def Con from 1.73272e-05 ++++++++++++++++++to 1.73282e-05
Heightened Def Con from 1.73282e-05 ++++++++++++++++++to 1.73292e-05
Heightened Def Con from 1.73292e-05 ++++++++++++++++++to 1.73302e-05
Heightened Def Con from 1.73302e-05 ++++++++++++++++++to 1.73312e-05
Heightened Def Con from 1.73312e-05 ++++++++++++++++++to 1.73322e-05
Heightened Def Con from 1.73322e-05 ++++++++++++++++++to 1.73332e-05
Heightened Def Con from 1.73332e-05 ++++++++++++++++++to 1.73342e-05
Heightened Def Con from 1.73342e-05 ++++++++++++++++++to 1.73352e-05
Heightened Def Con from 1.73352e-05 ++++++++++++++++++to 1.73362e-05
Heightened Def Con from 1.73362e-05 ++++++++++++++++++to 1.73372e-05
Heightened Def Con from 1.73372e-05 ++++++++++++++++++to 1.73382e-05
Heightened Def Con from 1.73382e-05 ++++++++++++++++++to 1.73392e-05
Heightened Def Con from 1.73392e-05 ++++++++++++++++++to 1.73402e-05
Heightened Def Con from 1.73402e-05 ++++++++++++++++++to 1.73412e-05
Heightened Def Con from 1.73412e-05 ++++++++++++++++++to 1.73422e-05
Heightened Def Con from 1.73422e-05 ++++++++++++++++++to 1.73432e-05
Heightened Def Con from 1.73432e-05 ++++++++++++++++++to 1.73442e-05
Heightened Def Con from 1.73442e-05 ++++++++++++++++++to 1.73452e-05
Heightened Def Con from 1.73452e-05 ++++++++++++++++++to 1.73462e-05
Heightened Def Con from 1.73462e-05 ++++++++++++++++++to 1.73472e-05
Heightened Def Con from 1.73472e-05 ++++++++++++++++++to 1.73482e-05
Heightened Def Con from 1.73482e-05 ++++++++++++++++++to 1.73492e-05
Heightened Def Con from 1.73492e-05 ++++++++++++++++++to 1.73502e-05
Heightened Def Con from 1.73502e-05 ++++++++++++++++++to 1.73512e-05
Heightened Def Con from 1.73512e-05 ++++++++++++++++++to 1.73522e-05
Heightened Def Con from 1.73522e-05 ++++++++++++++++++to 1.73532e-05
Heightened Def Con from 1.73532e-05 ++++++++++++++++++to 1.73542e-05
Heightened Def Con from 1.73542e-05 ++++++++++++++++++to 1.73552e-05
Heightened Def Con from 1.73552e-05 ++++++++++++++++++to 1.73562e-05
Heightened Def Con from 1.73562e-05 ++++++++++++++++++to 1.73572e-05
Heightened Def Con from 1.73572e-05 ++++++++++++++++++to 1.73582e-05
Heightened Def Con from 1.73582e-05 ++++++++++++++++++to 1.73592e-05
Heightened Def Con from 1.73592e-05 ++++++++++++++++++to 1.73602e-05
Heightened Def Con from 1.73602e-05 ++++++++++++++++++to 1.73612e-05
Heightened Def Con from 1.73612e-05 ++++++++++++++++++to 1.73622e-05
Heightened Def Con from 1.73622e-05 ++++++++++++++++++to 1.73632e-05
Heightened Def Con from 1.73632e-05 ++++++++++++++++++to 1.73642e-05
Heightened Def Con from 1.73642e-05 ++++++++++++++++++to 1.73652e-05
Heightened Def Con from 1.73652e-05 ++++++++++++++++++to 1.73662e-05
Heightened Def Con from 1.73662e-05 ++++++++++++++++++to 1.73672e-05
Heightened Def Con from 1.73672e-05 ++++++++++++++++++to 1.73682e-05
Heightened Def Con from 1.73682e-05 ++++++++++++++++++to 1.73692e-05
Heightened Def Con from 1.73692e-05 ++++++++++++++++++to 1.73702e-05
Heightened Def Con from 1.73702e-05 ++++++++++++++++++to 1.73712e-05
Heightened Def Con from 1.73712e-05 ++++++++++++++++++to 1.73722e-05
Heightened Def Con from 1.73722e-05 ++++++++++++++++++to 1.73732e-05
Heightened Def Con from 1.73732e-05 ++++++++++++++++++to 1.73742e-05
Heightened Def Con from 1.73742e-05 ++++++++++++++++++to 1.73752e-05
Heightened Def Con from 1.73752e-05 ++++++++++++++++++to 1.73762e-05
Heightened Def Con from 1.73762e-05 ++++++++++++++++++to 1.73772e-05
Heightened Def Con from 1.73772e-05 ++++++++++++++++++to 1.73782e-05
Heightened Def Con from 1.73782e-05 ++++++++++++++++++to 1.73792e-05
Heightened Def Con from 1.73792e-05 ++++++++++++++++++to 1.73802e-05
Heightened Def Con from 1.73802e-05 ++++++++++++++++++to 1.73812e-05
Heightened Def Con from 1.73812e-05 ++++++++++++++++++to 1.73822e-05
Heightened Def Con from 1.73822e-05 ++++++++++++++++++to 1.73832e-05
Heightened Def Con from 1.73832e-05 ++++++++++++++++++to 1.73842e-05
Heightened Def Con from 1.73842e-05 ++++++++++++++++++to 1.73852e-05
Heightened Def Con from 1.73852e-05 ++++++++++++++++++to 1.73862e-05
Heightened Def Con from 1.73862e-05 ++++++++++++++++++to 1.73872e-05
Heightened Def Con from 1.73872e-05 ++++++++++++++++++to 1.73882e-05
Heightened Def Con from 1.73882e-05 ++++++++++++++++++to 1.73892e-05
Heightened Def Con from 1.73892e-05 ++++++++++++++++++to 1.73902e-05
Heightened Def Con from 1.73902e-05 ++++++++++++++++++to 1.73912e-05
Heightened Def Con from 1.73912e-05 ++++++++++++++++++to 1.73922e-05
Heightened Def Con from 1.73922e-05 ++++++++++++++++++to 1.73932e-05
Heightened Def Con from 1.73932e-05 ++++++++++++++++++to 1.73942e-05
Heightened Def Con from 1.73942e-05 ++++++++++++++++++to 1.73952e-05
Heightened Def Con from 1.73952e-05 ++++++++++++++++++to 1.73962e-05
Heightened Def Con from 1.73962e-05 ++++++++++++++++++to 1.73972e-05
Heightened Def Con from 1.73972e-05 ++++++++++++++++++to 1.73982e-05
Heightened Def Con from 1.73982e-05 ++++++++++++++++++to 1.73992e-05
Heightened Def Con from 1.73992e-05 ++++++++++++++++++to 1.74002e-05
Heightened Def Con from 1.74002e-05 ++++++++++++++++++to 1.74012e-05
Heightened Def Con from 1.74012e-05 ++++++++++++++++++to 1.74022e-05
Heightened Def Con from 1.74022e-05 ++++++++++++++++++to 1.74032e-05
Heightened Def Con from 1.74032e-05 ++++++++++++++++++to 1.74042e-05
Heightened Def Con from 1.74042e-05 ++++++++++++++++++to 1.74052e-05
Heightened Def Con from 1.74052e-05 ++++++++++++++++++to 1.74062e-05
Heightened Def Con from 1.74062e-05 ++++++++++++++++++to 1.74072e-05
Heightened Def Con from 1.74072e-05 ++++++++++++++++++to 1.74082e-05
Heightened Def Con from 1.74082e-05 ++++++++++++++++++to 1.74092e-05
Heightened Def Con from 1.74092e-05 ++++++++++++++++++to 1.74102e-05
Heightened Def Con from 1.74102e-05 ++++++++++++++++++to 1.74112e-05
Heightened Def Con from 1.74112e-05 ++++++++++++++++++to 1.74122e-05
Heightened Def Con from 1.74122e-05 ++++++++++++++++++to 1.74132e-05
Heightened Def Con from 1.74132e-05 ++++++++++++++++++to 1.74142e-05
Heightened Def Con from 1.74142e-05 ++++++++++++++++++to 1.74152e-05
Heightened Def Con from 1.74152e-05 ++++++++++++++++++to 1.74162e-05
Heightened Def Con from 1.74162e-05 ++++++++++++++++++to 1.74172e-05
Heightened Def Con from 1.74172e-05 ++++++++++++++++++to 1.74182e-05
Heightened Def Con from 1.74182e-05 ++++++++++++++++++to 1.74192e-05
Heightened Def Con from 1.74192e-05 ++++++++++++++++++to 1.74202e-05
Heightened Def Con from 1.74202e-05 ++++++++++++++++++to 1.74212e-05
Heightened Def Con from 1.74212e-05 ++++++++++++++++++to 1.74222e-05
Heightened Def Con from 1.74222e-05 ++++++++++++++++++to 1.74232e-05
Heightened Def Con from 1.74232e-05 ++++++++++++++++++to 1.74242e-05
Heightened Def Con from 1.74242e-05 ++++++++++++++++++to 1.74252e-05
Heightened Def Con from 1.74252e-05 ++++++++++++++++++to 1.74262e-05
Heightened Def Con from 1.74262e-05 ++++++++++++++++++to 1.74272e-05
Heightened Def Con from 1.74272e-05 ++++++++++++++++++to 1.74282e-05
Heightened Def Con from 1.74282e-05 ++++++++++++++++++to 1.74292e-05
Heightened Def Con from 1.74292e-05 ++++++++++++++++++to 1.74302e-05
Heightened Def Con from 1.74302e-05 ++++++++++++++++++to 1.74312e-05
Heightened Def Con from 1.74312e-05 ++++++++++++++++++to 1.74322e-05
Heightened Def Con from 1.74322e-05 ++++++++++++++++++to 1.74332e-05
Heightened Def Con from 1.74332e-05 ++++++++++++++++++to 1.74342e-05
Heightened Def Con from 1.74342e-05 ++++++++++++++++++to 1.74352e-05
Heightened Def Con from 1.74352e-05 ++++++++++++++++++to 1.74362e-05
Heightened Def Con from 1.74362e-05 ++++++++++++++++++to 1.74372e-05
Heightened Def Con from 1.74372e-05 ++++++++++++++++++to 1.74382e-05
Heightened Def Con from 1.74382e-05 ++++++++++++++++++to 1.74392e-05
Heightened Def Con from 1.74392e-05 ++++++++++++++++++to 1.74402e-05
Heightened Def Con from 1.74402e-05 ++++++++++++++++++to 1.74412e-05
Heightened Def Con from 1.74412e-05 ++++++++++++++++++to 1.74422e-05
Heightened Def Con from 1.74422e-05 ++++++++++++++++++to 1.74432e-05
Heightened Def Con from 1.74432e-05 ++++++++++++++++++to 1.74442e-05
Heightened Def Con from 1.74442e-05 ++++++++++++++++++to 1.74452e-05
Heightened Def Con from 1.74452e-05 ++++++++++++++++++to 1.74462e-05
Heightened Def Con from 1.74462e-05 ++++++++++++++++++to 1.74472e-05
Heightened Def Con from 1.74472e-05 ++++++++++++++++++to 1.74482e-05
Heightened Def Con from 1.74482e-05 ++++++++++++++++++to 1.74492e-05
Heightened Def Con from 1.74492e-05 ++++++++++++++++++to 1.74502e-05
Heightened Def Con from 1.74502e-05 ++++++++++++++++++to 1.74512e-05
Heightened Def Con from 1.74512e-05 ++++++++++++++++++to 1.74522e-05
Heightened Def Con from 1.74522e-05 ++++++++++++++++++to 1.74532e-05
Heightened Def Con from 1.74532e-05 ++++++++++++++++++to 1.74542e-05
Heightened Def Con from 1.74542e-05 ++++++++++++++++++to 1.74552e-05
Heightened Def Con from 1.74552e-05 ++++++++++++++++++to 1.74562e-05
Heightened Def Con from 1.74562e-05 ++++++++++++++++++to 1.74572e-05
Heightened Def Con from 1.74572e-05 ++++++++++++++++++to 1.74582e-05
Heightened Def Con from 1.74582e-05 ++++++++++++++++++to 1.74592e-05
Heightened Def Con from 1.74592e-05 ++++++++++++++++++to 1.74602e-05
Heightened Def Con from 1.74602e-05 ++++++++++++++++++to 1.74612e-05
Heightened Def Con from 1.74612e-05 ++++++++++++++++++to 1.74622e-05
Heightened Def Con from 1.74622e-05 ++++++++++++++++++to 1.74632e-05
Heightened Def Con from 1.74632e-05 ++++++++++++++++++to 1.74642e-05
Heightened Def Con from 1.74642e-05 ++++++++++++++++++to 1.74652e-05
Heightened Def Con from 1.74652e-05 ++++++++++++++++++to 1.74662e-05
Heightened Def Con from 1.74662e-05 ++++++++++++++++++to 1.74672e-05
Heightened Def Con from 1.74672e-05 ++++++++++++++++++to 1.74682e-05
Heightened Def Con from 1.74682e-05 ++++++++++++++++++to 1.74692e-05
Heightened Def Con from 1.74692e-05 ++++++++++++++++++to 1.74702e-05
Heightened Def Con from 1.74702e-05 ++++++++++++++++++to 1.74712e-05
Heightened Def Con from 1.74712e-05 ++++++++++++++++++to 1.74722e-05
Heightened Def Con from 1.74722e-05 ++++++++++++++++++to 1.74732e-05
Heightened Def Con from 1.74732e-05 ++++++++++++++++++to 1.74742e-05
Heightened Def Con from 1.74742e-05 ++++++++++++++++++to 1.74752e-05
Heightened Def Con from 1.74752e-05 ++++++++++++++++++to 1.74762e-05
Heightened Def Con from 1.74762e-05 ++++++++++++++++++to 1.74772e-05
Heightened Def Con from 1.74772e-05 ++++++++++++++++++to 1.74782e-05
Heightened Def Con from 1.74782e-05 ++++++++++++++++++to 1.74792e-05
Heightened Def Con from 1.74792e-05 ++++++++++++++++++to 1.74802e-05
Heightened Def Con from 1.74802e-05 ++++++++++++++++++to 1.74812e-05
Heightened Def Con from 1.74812e-05 ++++++++++++++++++to 1.74822e-05
Heightened Def Con from 1.74822e-05 ++++++++++++++++++to 1.74832e-05
Heightened Def Con from 1.74832e-05 ++++++++++++++++++to 1.74842e-05
Heightened Def Con from 1.74842e-05 ++++++++++++++++++to 1.74852e-05
Heightened Def Con from 1.74852e-05 ++++++++++++++++++to 1.74862e-05
Heightened Def Con from 1.74862e-05 ++++++++++++++++++to 1.74872e-05
Heightened Def Con from 1.74872e-05 ++++++++++++++++++to 1.74882e-05
Heightened Def Con from 1.74882e-05 ++++++++++++++++++to 1.74892e-05
Heightened Def Con from 1.74892e-05 ++++++++++++++++++to 1.74902e-05
Heightened Def Con from 1.74902e-05 ++++++++++++++++++to 1.74912e-05
Heightened Def Con from 1.74912e-05 ++++++++++++++++++to 1.74922e-05
Heightened Def Con from 1.74922e-05 ++++++++++++++++++to 1.74932e-05
Heightened Def Con from 1.74932e-05 ++++++++++++++++++to 1.74942e-05
Heightened Def Con from 1.74942e-05 ++++++++++++++++++to 1.74952e-05
Heightened Def Con from 1.74952e-05 ++++++++++++++++++to 1.74962e-05
Heightened Def Con from 1.74962e-05 ++++++++++++++++++to 1.74972e-05
Heightened Def Con from 1.74972e-05 ++++++++++++++++++to 1.74982e-05
Heightened Def Con from 1.74982e-05 ++++++++++++++++++to 1.74992e-05
Heightened Def Con from 1.74992e-05 ++++++++++++++++++to 1.75002e-05
Heightened Def Con from 1.75002e-05 ++++++++++++++++to 1.75002e-05
Total elapsed time: 56.495 seconds.

