LTspice 24.0.9 for Windows
Circuit: * C:\Users\Akane\Desktop\Assignments\Year 4\ELEC4123\Elective\Draft4.asc
Start Time: Tue Apr 21 15:27:47 2026
solver = Normal
Maximum thread count: 12
tnom = 27
temp = 27
method = modified trap
v1: Removing PWL point (0.0001,0)
v1: Removing PWL point (0.0003,1)
v1: Removing PWL point (0.0005,0)
v1: Removing PWL point (0.000899,1)
v1: Removing PWL point (0.0013,0)
v1: Removing PWL point (0.0018,1)
v1: Removing PWL point (0.002,0)
v1: Removing PWL point (0.0023,0)
WARNING: Node NC_06 is floating.
WARNING: Node NC_10 is floating.

WARNING: Less than two connections to node nc_03.  This node is used by d:u1:3.
WARNING: Less than two connections to node bs.  This node is used by v1.
WARNING: Less than two connections to node nc_06.  This node is used by a:u2:2.
WARNING: Less than two connections to node nc_17.  This node is used by d:u2:3.
Direct Newton iteration for .op point succeeded.
Heightened Def Con from 1.16774e-05 +++++++++++++++++to 1.16774e-05
Heightened Def Con from 1.16774e-05 +++++++++++++++++to 1.16774e-05
Heightened Def Con from 1.16774e-05 +++++++++++++++++to 1.16774e-05
Heightened Def Con from 1.16774e-05 +++++++++++++++++to 1.16774e-05
Heightened Def Con from 1.16774e-05 +++++++++++++++++to 1.16774e-05
Heightened Def Con from 1.16774e-05 +++++++++++++++++to 1.16774e-05
Heightened Def Con from 1.16774e-05 +++++++++++++++++to 1.16774e-05
Heightened Def Con from 1.16774e-05 +++++++++++++++++to 1.16774e-05
Heightened Def Con from 1.16774e-05 +++++++++++++++++to 1.16774e-05
Heightened Def Con from 1.16774e-05 +++++++++++++++++to 1.16774e-05
Heightened Def Con from 1.16774e-05 +++++++++++++++++to 1.16774e-05
Heightened Def Con from 1.16774e-05 +++++++++++++++++to 1.16774e-05
Heightened Def Con from 1.16774e-05 +++++++++++++++++to 1.16774e-05
Heightened Def Con from 1.16774e-05 +++++++++++++++++to 1.16774e-05
Heightened Def Con from 1.16774e-05 +++++++++++++++++to 1.16774e-05
Heightened Def Con from 1.16774e-05 +++++++++++++++++to 1.16774e-05
Heightened Def Con from 1.16774e-05 +++++++++++++++++to 1.16774e-05
Heightened Def Con from 1.16774e-05 +++++++++++++++++to 1.16774e-05
Heightened Def Con from 1.16774e-05 +++++++++++++++++to 1.16774e-05
Heightened Def Con from 1.16774e-05 +++++++++++++++++to 1.16774e-05
Heightened Def Con from 1.16774e-05 +++++++++++++++++to 1.16774e-05
Heightened Def Con from 1.16774e-05 +++++++++++++++++to 1.16774e-05
Heightened Def Con from 1.16774e-05 +++++++++++++++++to 1.16774e-05
Heightened Def Con from 1.16774e-05 +++++++++++++++++to 1.16774e-05
Heightened Def Con from 1.16774e-05 +++++++++++++++++to 1.16774e-05
Heightened Def Con from 1.16774e-05 ++++++++++++++++++to 1.16784e-05
Heightened Def Con from 1.16784e-05 ++++++++++++++++++to 1.16794e-05
Heightened Def Con from 1.16794e-05 ++++++++++++++++++to 1.16804e-05
Heightened Def Con from 1.16804e-05 ++++++++++++++++++to 1.16814e-05
Heightened Def Con from 1.16814e-05 ++++++++++++++++++to 1.16824e-05
Heightened Def Con from 1.16824e-05 ++++++++++++++++++to 1.16834e-05
Heightened Def Con from 1.16834e-05 ++++++++++++++++++to 1.16844e-05
Heightened Def Con from 1.16844e-05 ++++++++++++++++++to 1.16854e-05
Heightened Def Con from 1.16854e-05 ++++++++++++++++++to 1.16864e-05
Heightened Def Con from 1.16864e-05 ++++++++++++++++++to 1.16874e-05
Heightened Def Con from 1.16874e-05 ++++++++++++++++++to 1.16884e-05
Heightened Def Con from 1.16884e-05 ++++++++++++++++++to 1.16894e-05
Heightened Def Con from 1.16894e-05 ++++++++++++++++++to 1.16904e-05
Heightened Def Con from 1.16904e-05 ++++++++++++++++++to 1.16914e-05
Heightened Def Con from 1.16914e-05 ++++++++++++++++++to 1.16924e-05
Heightened Def Con from 1.16924e-05 ++++++++++++++++++to 1.16934e-05
Heightened Def Con from 1.16934e-05 ++++++++++++++++++to 1.16944e-05
Heightened Def Con from 1.16944e-05 ++++++++++++++++++to 1.16954e-05
Heightened Def Con from 1.16954e-05 ++++++++++++++++++to 1.16964e-05
Heightened Def Con from 1.16964e-05 ++++++++++++++++++to 1.16974e-05
Heightened Def Con from 1.16974e-05 ++++++++++++++++++to 1.16984e-05
Heightened Def Con from 1.16984e-05 ++++++++++++++++++to 1.16994e-05
Heightened Def Con from 1.16994e-05 ++++++++++++++++++to 1.17004e-05
Heightened Def Con from 1.17004e-05 ++++++++++++++++++to 1.17014e-05
Heightened Def Con from 1.17014e-05 ++++++++++++++++++to 1.17024e-05
Heightened Def Con from 1.17024e-05 ++++++++++++++++++to 1.17034e-05
Heightened Def Con from 1.17034e-05 ++++++++++++++++++to 1.17044e-05
Heightened Def Con from 1.17044e-05 ++++++++++++++++++to 1.17054e-05
Heightened Def Con from 1.17054e-05 ++++++++++++++++++to 1.17064e-05
Heightened Def Con from 1.17064e-05 ++++++++++++++++++to 1.17074e-05
Heightened Def Con from 1.17074e-05 ++++++++++++++++++to 1.17084e-05
Heightened Def Con from 1.17084e-05 ++++++++++++++++++to 1.17094e-05
Heightened Def Con from 1.17094e-05 ++++++++++++++++++to 1.17104e-05
Heightened Def Con from 1.17104e-05 ++++++++++++++++++to 1.17114e-05
Heightened Def Con from 1.17114e-05 ++++++++++++++++++to 1.17124e-05
Heightened Def Con from 1.17124e-05 ++++++++++++++++++to 1.17134e-05
Heightened Def Con from 1.17134e-05 ++++++++++++++++++to 1.17144e-05
Heightened Def Con from 1.17144e-05 ++++++++++++++++++to 1.17154e-05
Heightened Def Con from 1.17154e-05 ++++++++++++++++++to 1.17164e-05
Heightened Def Con from 1.17164e-05 ++++++++++++++++++to 1.17174e-05
Heightened Def Con from 1.17174e-05 ++++++++++++++++++to 1.17184e-05
Heightened Def Con from 1.17184e-05 ++++++++++++++++++to 1.17194e-05
Heightened Def Con from 1.17194e-05 ++++++++++++++++++to 1.17204e-05
Heightened Def Con from 1.17204e-05 ++++++++++++++++++to 1.17214e-05
Heightened Def Con from 1.17214e-05 ++++++++++++++++++to 1.17224e-05
Heightened Def Con from 1.17224e-05 ++++++++++++++++++to 1.17234e-05
Heightened Def Con from 1.17234e-05 ++++++++++++++++++to 1.17244e-05
Heightened Def Con from 1.17244e-05 ++++++++++++++++++to 1.17254e-05
Heightened Def Con from 1.17254e-05 ++++++++++++++++++to 1.17264e-05
Heightened Def Con from 1.17264e-05 ++++++++++++++++++to 1.17274e-05
Heightened Def Con from 1.17274e-05 ++++++++++++++++++to 1.17284e-05
Heightened Def Con from 1.17284e-05 ++++++++++++++++++to 1.17294e-05
Heightened Def Con from 1.17294e-05 ++++++++++++++++++to 1.17304e-05
Heightened Def Con from 1.17304e-05 ++++++++++++++++++to 1.17314e-05
Heightened Def Con from 1.17314e-05 ++++++++++++++++++to 1.17324e-05
Heightened Def Con from 1.17324e-05 ++++++++++++++++++to 1.17334e-05
Heightened Def Con from 1.17334e-05 ++++++++++++++++++to 1.17344e-05
Heightened Def Con from 1.17344e-05 ++++++++++++++++++to 1.17354e-05
Heightened Def Con from 1.17354e-05 ++++++++++++++++++to 1.17364e-05
Heightened Def Con from 1.17364e-05 ++++++++++++++++++to 1.17374e-05
Heightened Def Con from 1.17374e-05 ++++++++++++++++++to 1.17384e-05
Heightened Def Con from 1.17384e-05 ++++++++++++++++++to 1.17394e-05
Heightened Def Con from 1.17394e-05 ++++++++++++++++++to 1.17404e-05
Heightened Def Con from 1.17404e-05 ++++++++++++++++++to 1.17414e-05
Heightened Def Con from 1.17414e-05 ++++++++++++++++++to 1.17424e-05
Heightened Def Con from 1.17424e-05 ++++++++++++++++++to 1.17434e-05
Heightened Def Con from 1.17434e-05 ++++++++++++++++++to 1.17444e-05
Heightened Def Con from 1.17444e-05 ++++++++++++++++++to 1.17454e-05
Heightened Def Con from 1.17454e-05 ++++++++++++++++++to 1.17464e-05
Heightened Def Con from 1.17464e-05 ++++++++++++++++++to 1.17474e-05
Heightened Def Con from 1.17474e-05 ++++++++++++++++++to 1.17484e-05
Heightened Def Con from 1.17484e-05 ++++++++++++++++++to 1.17494e-05
Heightened Def Con from 1.17494e-05 ++++++++++++++++++to 1.17504e-05
Heightened Def Con from 1.17504e-05 ++++++++++++++++++to 1.17514e-05
Heightened Def Con from 1.17514e-05 ++++++++++++++++++to 1.17524e-05
Heightened Def Con from 1.17524e-05 ++++++++++++++++++to 1.17534e-05
Heightened Def Con from 1.17534e-05 ++++++++++++++++++to 1.17544e-05
Heightened Def Con from 1.17544e-05 ++++++++++++++++++to 1.17554e-05
Heightened Def Con from 1.17554e-05 ++++++++++++++++++to 1.17564e-05
Heightened Def Con from 1.17564e-05 ++++++++++++++++++to 1.17574e-05
Heightened Def Con from 1.17574e-05 ++++++++++++++++++to 1.17584e-05
Heightened Def Con from 1.17584e-05 ++++++++++++++++++to 1.17594e-05
Heightened Def Con from 1.17594e-05 ++++++++++++++++++to 1.17604e-05
Heightened Def Con from 1.17604e-05 ++++++++++++++++++to 1.17614e-05
Heightened Def Con from 1.17614e-05 ++++++++++++++++++to 1.17624e-05
Heightened Def Con from 1.17624e-05 +++++++++++++++++to 1.17624e-05
Heightened Def Con from 1.17624e-05 +++++++++++++++++to 1.17624e-05
Heightened Def Con from 1.17624e-05 +++++++++++++++++to 1.17624e-05
Heightened Def Con from 1.17624e-05 +++++++++++++++++to 1.17624e-05
Heightened Def Con from 1.17624e-05 +++++++++++++++++to 1.17624e-05
Heightened Def Con from 1.17624e-05 +++++++++++++++++to 1.17624e-05
Heightened Def Con from 1.17624e-05 +++++++++++++++++to 1.17624e-05
Heightened Def Con from 1.17624e-05 +++++++++++++++++to 1.17624e-05
Heightened Def Con from 1.17624e-05 +++++++++++++++++to 1.17624e-05
Heightened Def Con from 1.17624e-05 +++++++++++++++++to 1.17624e-05
Heightened Def Con from 1.17624e-05 +++++++++++++++++to 1.17624e-05
Heightened Def Con from 1.17624e-05 +++++++++++++++++to 1.17624e-05
Heightened Def Con from 1.17624e-05 +++++++++++++++++to 1.17624e-05
Heightened Def Con from 1.17624e-05 +++++++++++++++++to 1.17624e-05
Heightened Def Con from 1.17624e-05 +++++++++++++++++to 1.17624e-05
Heightened Def Con from 1.17624e-05 +++++++++++++++++to 1.17624e-05
Heightened Def Con from 1.17624e-05 +++++++++++++++++to 1.17624e-05
Heightened Def Con from 1.17624e-05 +++++++++++++++++to 1.17624e-05
Heightened Def Con from 1.17624e-05 +++++++++++++++++to 1.17624e-05
Heightened Def Con from 1.17624e-05 +++++++++++++++++to 1.17624e-05
Heightened Def Con from 1.17624e-05 +++++++++++++++++to 1.17624e-05
Heightened Def Con from 1.17624e-05 +++++++++++++++++to 1.17624e-05
Heightened Def Con from 1.17624e-05 +++++++++++++++++to 1.17624e-05
Heightened Def Con from 1.17624e-05 +++++++++++++++++to 1.17624e-05
Heightened Def Con from 1.17624e-05 +++++++++++++++++to 1.17624e-05
Heightened Def Con from 1.17624e-05 +++++++++++++++++to 1.17624e-05
Heightened Def Con from 1.17624e-05 +++++++++++++++++to 1.17624e-05
Heightened Def Con from 1.17624e-05 +++++++++++++++++to 1.17624e-05
Heightened Def Con from 1.17624e-05 +++++++++++++++++to 1.17624e-05
Heightened Def Con from 1.17624e-05 +++++++++++++++++to 1.17624e-05
Heightened Def Con from 1.17624e-05 +++++++++++++++++to 1.17624e-05
Heightened Def Con from 1.17624e-05 +++++++++++++++++to 1.17624e-05
Heightened Def Con from 1.17624e-05 +++++++++++++++++to 1.17624e-05
Heightened Def Con from 1.17624e-05 +++++++++++++++++to 1.17624e-05
Heightened Def Con from 1.17624e-05 +++++++++++++++++to 1.17624e-05
Heightened Def Con from 1.17624e-05 +++++++++++++++++to 1.17624e-05
Heightened Def Con from 1.17624e-05 +++++++++++++++++to 1.17624e-05
Heightened Def Con from 1.17624e-05 +++++++++++++++++to 1.17624e-05
Heightened Def Con from 1.17624e-05 +++++++++++++++++to 1.17624e-05
Heightened Def Con from 1.17624e-05 +++++++++++++++++to 1.17624e-05
Heightened Def Con from 1.17624e-05 +++++++++++++++++to 1.17624e-05
Heightened Def Con from 1.17624e-05 +++++++++++++++++to 1.17624e-05
Heightened Def Con from 1.17624e-05 +++++++++++++++++to 1.17624e-05
Heightened Def Con from 1.17624e-05 +++++++++++++++++to 1.17624e-05
Heightened Def Con from 1.17624e-05 +++++++++++++++++to 1.17624e-05
Heightened Def Con from 1.17624e-05 +++++++++++++++++to 1.17624e-05
Heightened Def Con from 1.17624e-05 +++++++++++++++++to 1.17624e-05
Heightened Def Con from 1.17624e-05 +++++++++++++++++to 1.17624e-05
Heightened Def Con from 1.17624e-05 +++++++++++++++++to 1.17624e-05
Heightened Def Con from 1.17624e-05 +++++++++++++++++to 1.17624e-05
Heightened Def Con from 1.17624e-05 +++++++++++++++++to 1.17624e-05
Heightened Def Con from 1.17624e-05 +++++++++++++++++to 1.17624e-05
Heightened Def Con from 1.17624e-05 +++++++++++++++++to 1.17624e-05
Heightened Def Con from 1.17624e-05 +++++++++++++++++to 1.17624e-05
Heightened Def Con from 1.17624e-05 +++++++++++++++++to 1.17624e-05
Heightened Def Con from 1.17624e-05 +++++++++++++++++to 1.17624e-05
Heightened Def Con from 1.17624e-05 +++++++++++++++++to 1.17624e-05
Heightened Def Con from 1.17624e-05 +++++++++++++++++to 1.17624e-05
Heightened Def Con from 1.17624e-05 +++++++++++++++++to 1.17624e-05
Heightened Def Con from 1.17624e-05 +++++++++++++++++to 1.17624e-05
Heightened Def Con from 1.17624e-05 +++++++++++++++++to 1.17624e-05
Heightened Def Con from 1.17624e-05 +++++++++++++++++to 1.17624e-05
Heightened Def Con from 1.17624e-05 +++++++++++++++++to 1.17624e-05
Heightened Def Con from 1.17624e-05 +++++++++++++++++to 1.17624e-05
Heightened Def Con from 1.17624e-05 +++++++++++++++++to 1.17624e-05
Heightened Def Con from 1.17624e-05 +++++++++++++++++to 1.17624e-05
Heightened Def Con from 1.17624e-05 +++++++++++++++++to 1.17624e-05
Heightened Def Con from 1.17624e-05 +++++++++++++++++to 1.17624e-05
Heightened Def Con from 1.17624e-05 +++++++++++++++++to 1.17624e-05
Heightened Def Con from 1.17624e-05 +++++++++++++++++to 1.17624e-05
Heightened Def Con from 1.17624e-05 +++++++++++++++++to 1.17624e-05
Heightened Def Con from 1.17624e-05 +++++++++++++++++to 1.17624e-05
Heightened Def Con from 1.17624e-05 +++++++++++++++++to 1.17624e-05
Heightened Def Con from 1.17624e-05 +++++++++++++++++to 1.17624e-05
Heightened Def Con from 1.17624e-05 +++++++++++++++++to 1.17624e-05
Heightened Def Con from 1.17624e-05 +++++++++++++++++to 1.17624e-05
Heightened Def Con from 1.17624e-05 +++++++++++++++++to 1.17624e-05
Heightened Def Con from 1.17624e-05 +++++++++++++++++to 1.17624e-05
Heightened Def Con from 1.17624e-05 +++++++++++++++++to 1.17624e-05
Heightened Def Con from 1.17624e-05 +++++++++++++++++to 1.17624e-05
Heightened Def Con from 1.17624e-05 +++++++++++++++++to 1.17624e-05
Heightened Def Con from 1.17624e-05 +++++++++++++++++to 1.17624e-05
Heightened Def Con from 1.17624e-05 +++++++++++++++++to 1.17624e-05
Heightened Def Con from 1.17624e-05 +++++++++++++++++to 1.17624e-05
Heightened Def Con from 1.17624e-05 +++++++++++++++++to 1.17624e-05
Heightened Def Con from 1.17624e-05 +++++++++++++++++to 1.17624e-05
Heightened Def Con from 1.17624e-05 +++++++++++++++++to 1.17624e-05
Heightened Def Con from 1.17624e-05 +++++++++++++++++to 1.17624e-05
Heightened Def Con from 1.17624e-05 +++++++++++++++++to 1.17624e-05
Heightened Def Con from 1.17624e-05 +++++++++++++++++to 1.17624e-05
Heightened Def Con from 1.17624e-05 +++++++++++++++++to 1.17624e-05
Heightened Def Con from 1.17624e-05 +++++++++++++++++to 1.17624e-05
Heightened Def Con from 1.17624e-05 +++++++++++++++++to 1.17624e-05
Heightened Def Con from 1.17624e-05 +++++++++++++++++to 1.17624e-05
Heightened Def Con from 1.17624e-05 +++++++++++++++++to 1.17624e-05
Heightened Def Con from 1.17624e-05 +++++++++++++++++to 1.17624e-05
Heightened Def Con from 1.17624e-05 +++++++++++++++++to 1.17624e-05
Heightened Def Con from 1.17624e-05 +++++++++++++++++to 1.17624e-05
Heightened Def Con from 1.17624e-05 +++++++++++++++++to 1.17624e-05
Heightened Def Con from 1.17624e-05 +++++++++++++++++to 1.17624e-05
Heightened Def Con from 1.17624e-05 +++++++++++++++++to 1.17624e-05
Heightened Def Con from 1.17624e-05 +++++++++++++++++to 1.17624e-05
Heightened Def Con from 1.17624e-05 +++++++++++++++++to 1.17624e-05
Heightened Def Con from 1.17624e-05 +++++++++++++++++to 1.17624e-05
Heightened Def Con from 1.17624e-05 +++++++++++++++++to 1.17624e-05
Heightened Def Con from 1.17624e-05 +++++++++++++++++to 1.17624e-05
Heightened Def Con from 1.17624e-05 +++++++++++++++++to 1.17624e-05
Heightened Def Con from 1.17624e-05 +++++++++++++++++to 1.17624e-05
Heightened Def Con from 1.17624e-05 +++++++++++++++++to 1.17624e-05
Heightened Def Con from 1.17624e-05 +++++++++++++++++to 1.17624e-05
Heightened Def Con from 1.17624e-05 +++++++++++++++++to 1.17624e-05
Heightened Def Con from 1.17624e-05 +++++++++++++++++to 1.17624e-05
Heightened Def Con from 1.17624e-05 +++++++++++++++++to 1.17624e-05
Heightened Def Con from 1.17624e-05 +++++++++++++++++to 1.17624e-05
Heightened Def Con from 1.17624e-05 +++++++++++++++++to 1.17624e-05
Heightened Def Con from 1.17624e-05 +++++++++++++++++to 1.17624e-05
Heightened Def Con from 1.17624e-05 +++++++++++++++++to 1.17624e-05
Heightened Def Con from 1.17624e-05 +++++++++++++++++to 1.17624e-05
Heightened Def Con from 1.17624e-05 +++++++++++++++++to 1.17624e-05
Heightened Def Con from 1.17624e-05 +++++++++++++++++to 1.17624e-05
Heightened Def Con from 1.17624e-05 +++++++++++++++++to 1.17624e-05
Heightened Def Con from 1.17624e-05 +++++++++++++++++to 1.17624e-05
Heightened Def Con from 1.17624e-05 +++++++++++++++++to 1.17624e-05
Heightened Def Con from 1.17624e-05 +++++++++++++++++to 1.17624e-05
Heightened Def Con from 1.17624e-05 +++++++++++++++++to 1.17624e-05
Heightened Def Con from 1.17624e-05 +++++++++++++++++to 1.17624e-05
Heightened Def Con from 1.17624e-05 +++++++++++++++++to 1.17624e-05
Heightened Def Con from 1.17624e-05 +++++++++++++++++to 1.17624e-05
Heightened Def Con from 1.17624e-05 +++++++++++++++++to 1.17624e-05
Heightened Def Con from 1.17624e-05 +++++++++++++++++to 1.17624e-05
Heightened Def Con from 1.17624e-05 +++++++++++++++++to 1.17624e-05
Heightened Def Con from 1.17624e-05 +++++++++++++++++to 1.17624e-05
Heightened Def Con from 1.17624e-05 +++++++++++++++++to 1.17624e-05
Heightened Def Con from 1.17624e-05 +++++++++++++++++to 1.17624e-05
Heightened Def Con from 1.17624e-05 +++++++++++++++++to 1.17624e-05
Heightened Def Con from 1.17624e-05 +++++++++++++++++to 1.17624e-05
Heightened Def Con from 1.17624e-05 +++++++++++++++++to 1.17624e-05
Heightened Def Con from 1.17624e-05 +++++++++++++++++to 1.17624e-05
Heightened Def Con from 1.17624e-05 +++++++++++++++++to 1.17624e-05
Heightened Def Con from 1.17624e-05 +++++++++++++++++to 1.17624e-05
Heightened Def Con from 1.17624e-05 +++++++++++++++++to 1.17624e-05
Heightened Def Con from 1.17624e-05 +++++++++++++++++to 1.17624e-05
Heightened Def Con from 1.17624e-05 +++++++++++++++++to 1.17624e-05
Heightened Def Con from 1.17624e-05 +++++++++++++++++to 1.17624e-05
Heightened Def Con from 1.17624e-05 +++++++++++++++++to 1.17624e-05
Heightened Def Con from 1.17624e-05 +++++++++++++++++to 1.17624e-05
Heightened Def Con from 1.17624e-05 +++++++++++++++++to 1.17624e-05
Heightened Def Con from 1.17624e-05 +++++++++++++++++to 1.17624e-05
Heightened Def Con from 1.17624e-05 +++++++++++++++++to 1.17624e-05
Heightened Def Con from 1.17624e-05 +++++++++++++++++to 1.17624e-05
Heightened Def Con from 1.17624e-05 +++++++++++++++++to 1.17624e-05
Heightened Def Con from 1.17624e-05 +++++++++++++++++to 1.17624e-05
Heightened Def Con from 1.17624e-05 +++++++++++++++++to 1.17624e-05
Heightened Def Con from 1.17624e-05 +++++++++++++++++to 1.17624e-05
Heightened Def Con from 1.17624e-05 +++++++++++++++++to 1.17624e-05
Heightened Def Con from 1.17624e-05 +++++++++++++++++to 1.17624e-05
Heightened Def Con from 1.17624e-05 +++++++++++++++++to 1.17624e-05
Heightened Def Con from 1.17624e-05 +++++++++++++++++to 1.17624e-05
Heightened Def Con from 1.17624e-05 +++++++++++++++++to 1.17624e-05
Heightened Def Con from 1.17624e-05 +++++++++++++++++to 1.17624e-05
Heightened Def Con from 1.17624e-05 +++++++++++++++++to 1.17624e-05
Heightened Def Con from 1.17624e-05 +++++++++++++++++to 1.17624e-05
Heightened Def Con from 1.17624e-05 +++++++++++++++++to 1.17624e-05
Heightened Def Con from 1.17624e-05 +++++++++++++++++to 1.17624e-05
Heightened Def Con from 1.17624e-05 +++++++++++++++++to 1.17624e-05
Heightened Def Con from 1.17624e-05 +++++++++++++++++to 1.17624e-05
Heightened Def Con from 1.17624e-05 +++++++++++++++++to 1.17624e-05
Heightened Def Con from 1.17624e-05 +++++++++++++++++to 1.17624e-05
Heightened Def Con from 1.17624e-05 +++++++++++++++++to 1.17624e-05
Heightened Def Con from 1.17624e-05 +++++++++++++++++to 1.17624e-05
Heightened Def Con from 1.17624e-05 +++++++++++++++++to 1.17624e-05
Heightened Def Con from 1.17624e-05 +++++++++++++++++to 1.17624e-05
Heightened Def Con from 1.17624e-05 +++++++++++++++++to 1.17624e-05
Heightened Def Con from 1.17624e-05 +++++++++++++++++to 1.17624e-05
Heightened Def Con from 1.17624e-05 +++++++++++++++++to 1.17624e-05
Heightened Def Con from 1.17624e-05 +++++++++++++++++to 1.17624e-05
Heightened Def Con from 1.17624e-05 +++++++++++++++++to 1.17624e-05
Heightened Def Con from 1.17624e-05 +++++++++++++++++to 1.17624e-05
Heightened Def Con from 1.17624e-05 +++++++++++++++++to 1.17624e-05
Heightened Def Con from 1.17624e-05 +++++++++++++++++to 1.17624e-05
Heightened Def Con from 1.17624e-05 +++++++++++++++++to 1.17624e-05
Heightened Def Con from 1.17624e-05 +++++++++++++++++to 1.17624e-05
Heightened Def Con from 1.17624e-05 +++++++++++++++++to 1.17624e-05
Heightened Def Con from 1.17624e-05 +++++++++++++++++to 1.17624e-05
Heightened Def Con from 1.17624e-05 +++++++++++++++++to 1.17624e-05
Heightened Def Con from 1.17624e-05 +++++++++++++++++to 1.17624e-05
Heightened Def Con from 1.17624e-05 +++++++++++++++++to 1.17624e-05
Heightened Def Con from 1.17624e-05 +++++++++++++++++to 1.17624e-05
Heightened Def Con from 1.17624e-05 +++++++++++++++++to 1.17624e-05
Heightened Def Con from 1.17624e-05 +++++++++++++++++to 1.17624e-05
Heightened Def Con from 1.17624e-05 +++++++++++++++++to 1.17624e-05
Heightened Def Con from 1.17624e-05 +++++++++++++++++to 1.17624e-05
Heightened Def Con from 1.17624e-05 +++++++++++++++++to 1.17624e-05
Heightened Def Con from 1.17624e-05 +++++++++++++++++to 1.17624e-05
Heightened Def Con from 1.17624e-05 +++++++++++++++++to 1.17624e-05
Heightened Def Con from 1.17624e-05 +++++++++++++++++to 1.17624e-05
Heightened Def Con from 1.17624e-05 +++++++++++++++++to 1.17624e-05
Heightened Def Con from 1.17624e-05 +++++++++++++++++to 1.17624e-05
Heightened Def Con from 1.17624e-05 +++++++++++++++++to 1.17624e-05
Heightened Def Con from 1.17624e-05 +++++++++++++++++to 1.17624e-05
Heightened Def Con from 1.17624e-05 +++++++++++++++++to 1.17624e-05
Heightened Def Con from 1.17624e-05 +++++++++++++++++to 1.17624e-05
Heightened Def Con from 1.17624e-05 +++++++++++++++++to 1.17624e-05
Heightened Def Con from 1.17624e-05 +++++++++++++++++to 1.17624e-05
Heightened Def Con from 1.17624e-05 +++++++++++++++++to 1.17624e-05
Heightened Def Con from 1.17624e-05 +++++++++++++++++to 1.17624e-05
Heightened Def Con from 1.17624e-05 +++++++++++++++++to 1.17624e-05
Heightened Def Con from 1.17624e-05 +++++++++++++++++to 1.17624e-05
Heightened Def Con from 1.17624e-05 +++++++++++++++++to 1.17624e-05
Heightened Def Con from 1.17624e-05 +++++++++++++++++to 1.17624e-05
Heightened Def Con from 1.17624e-05 +++++++++++++++++to 1.17624e-05
Heightened Def Con from 1.17624e-05 +++++++++++++++++to 1.17624e-05
Heightened Def Con from 1.17624e-05 +++++++++++++++++to 1.17624e-05
Heightened Def Con from 1.17624e-05 +++++++++++++++++to 1.17624e-05
Heightened Def Con from 1.17624e-05 +++++++++++++++++to 1.17624e-05
Heightened Def Con from 1.17624e-05 +++++++++++++++++to 1.17624e-05
Heightened Def Con from 1.17624e-05 +++++++++++++++++to 1.17624e-05
Heightened Def Con from 1.17624e-05 +++++++++++++++++to 1.17624e-05
Heightened Def Con from 1.17624e-05 +++++++++++++++++to 1.17624e-05
Heightened Def Con from 1.17624e-05 +++++++++++++++++to 1.17624e-05
Heightened Def Con from 1.17624e-05 +++++++++++++++++to 1.17624e-05
Heightened Def Con from 1.17624e-05 +++++++++++++++++to 1.17624e-05
Heightened Def Con from 1.17624e-05 +++++++++++++++++to 1.17624e-05
Heightened Def Con from 1.17624e-05 +++++++++++++++++to 1.17624e-05
Heightened Def Con from 1.17624e-05 +++++++++++++++++to 1.17624e-05
Heightened Def Con from 1.17624e-05 +++++++++++++++++to 1.17624e-05
Heightened Def Con from 1.17624e-05 +++++++++++++++++to 1.17624e-05
Heightened Def Con from 1.17624e-05 +++++++++++++++++to 1.17624e-05
Heightened Def Con from 1.17624e-05 +++++++++++++++++to 1.17624e-05
Heightened Def Con from 1.17624e-05 +++++++++++++++++to 1.17624e-05
Heightened Def Con from 1.17624e-05 +++++++++++++++++to 1.17624e-05
Heightened Def Con from 1.17624e-05 +++++++++++++++++to 1.17624e-05
Heightened Def Con from 1.17624e-05 +++++++++++++++++to 1.17624e-05
Heightened Def Con from 1.17624e-05 +++++++++++++++++to 1.17624e-05
Heightened Def Con from 1.17624e-05 +++++++++++++++++to 1.17624e-05
Heightened Def Con from 1.17624e-05 +++++++++++++++++to 1.17624e-05
Heightened Def Con from 1.17624e-05 +++++++++++++++++to 1.17624e-05
Heightened Def Con from 1.17624e-05 +++++++++++++++++to 1.17624e-05
Heightened Def Con from 1.17624e-05 +++++++++++++++++to 1.17624e-05
Heightened Def Con from 1.17624e-05 +++++++++++++++++to 1.17624e-05
Heightened Def Con from 1.17624e-05 +++++++++++++++++to 1.17624e-05
Heightened Def Con from 1.17624e-05 +++++++++++++++++to 1.17624e-05
Heightened Def Con from 1.17624e-05 +++++++++++++++++to 1.17624e-05
Heightened Def Con from 1.17624e-05 +++++++++++++++++to 1.17624e-05
Heightened Def Con from 1.17624e-05 +++++++++++++++++to 1.17624e-05
Heightened Def Con from 1.17624e-05 +++++++++++++++++to 1.17624e-05
Heightened Def Con from 1.17624e-05 +++++++++++++++++to 1.17624e-05
Heightened Def Con from 1.17624e-05 +++++++++++++++++to 1.17624e-05
Heightened Def Con from 1.17624e-05 +++++++++++++++++to 1.17624e-05
Heightened Def Con from 1.17624e-05 +++++++++++++++++to 1.17624e-05
Heightened Def Con from 1.17624e-05 +++++++++++++++++to 1.17624e-05
Heightened Def Con from 1.17624e-05 +++++++++++++++++to 1.17624e-05
Heightened Def Con from 1.17624e-05 +++++++++++++++++to 1.17624e-05
Heightened Def Con from 1.17624e-05 +++++++++++++++++to 1.17624e-05
Heightened Def Con from 1.17624e-05 +++++++++++++++++to 1.17624e-05
Heightened Def Con from 1.17624e-05 +++++++++++++++++to 1.17624e-05
Heightened Def Con from 1.17624e-05 +++++++++++++++++to 1.17624e-05
Heightened Def Con from 1.17624e-05 +++++++++++++++++to 1.17624e-05
Heightened Def Con from 1.17624e-05 +++++++++++++++++to 1.17624e-05
Heightened Def Con from 1.17624e-05 +++++++++++++++++to 1.17624e-05
Heightened Def Con from 1.17624e-05 +++++++++++++++++to 1.17624e-05
Heightened Def Con from 1.17624e-05 +++++++++++++++++to 1.17624e-05
Heightened Def Con from 1.17624e-05 +++++++++++++++++to 1.17624e-05
Heightened Def Con from 1.17624e-05 +++++++++++++++++to 1.17624e-05
Heightened Def Con from 1.17624e-05 +++++++++++++++++to 1.17624e-05
Heightened Def Con from 1.17624e-05 +++++++++++++++++to 1.17624e-05
Heightened Def Con from 1.17624e-05 +++++++++++++++++to 1.17624e-05
Heightened Def Con from 1.17624e-05 +++++++++++++++++to 1.17624e-05
Heightened Def Con from 1.17624e-05 +++++++++++++++++to 1.17624e-05
Heightened Def Con from 1.17624e-05 +++++++++++++++++to 1.17624e-05
Heightened Def Con from 1.17624e-05 +++++++++++++++++to 1.17624e-05
Heightened Def Con from 1.17624e-05 +++++++++++++++++to 1.17624e-05
Heightened Def Con from 1.17624e-05 +++++++++++++++++to 1.17624e-05
Heightened Def Con from 1.17624e-05 +++++++++++++++++to 1.17624e-05
Heightened Def Con from 1.17624e-05 +++++++++++++++++to 1.17624e-05
Heightened Def Con from 1.17624e-05 +++++++++++++++++to 1.17624e-05
Heightened Def Con from 1.17624e-05 +++++++++++++++++to 1.17624e-05
Heightened Def Con from 1.17624e-05 +++++++++++++++++to 1.17624e-05
Heightened Def Con from 1.17624e-05 +++++++++++++++++to 1.17624e-05
Heightened Def Con from 1.17624e-05 +++++++++++++++++to 1.17624e-05
Heightened Def Con from 1.17624e-05 +++++++++++++++++to 1.17624e-05
Heightened Def Con from 1.17624e-05 +++++++++++++++++to 1.17624e-05
Heightened Def Con from 1.17624e-05 +++++++++++++++++to 1.17624e-05
Heightened Def Con from 1.17624e-05 +++++++++++++++++to 1.17624e-05
Heightened Def Con from 1.17624e-05 +++++++++++++++++to 1.17624e-05
Heightened Def Con from 1.17624e-05 +++++++++++++++++to 1.17624e-05
Heightened Def Con from 1.17624e-05 +++++++++++++++++to 1.17624e-05
Heightened Def Con from 1.17624e-05 +++++++++++++++++to 1.17624e-05
Heightened Def Con from 1.17624e-05 +++++++++++++++++to 1.17624e-05
Heightened Def Con from 1.17624e-05 +++++++++++++++++to 1.17624e-05
Heightened Def Con from 1.17624e-05 +++++++++++++++++to 1.17624e-05
Heightened Def Con from 1.17624e-05 +++++++++++++++++to 1.17624e-05
Heightened Def Con from 1.17624e-05 +++++++++++++++++to 1.17624e-05
Heightened Def Con from 1.17624e-05 +++++++++++++++++to 1.17624e-05
Heightened Def Con from 1.17624e-05 +++++++++++++++++to 1.17624e-05
Heightened Def Con from 1.17624e-05 +++++++++++++++++to 1.17624e-05
Heightened Def Con from 1.17624e-05 +++++++++++++++++to 1.17624e-05
Heightened Def Con from 1.17624e-05 +++++++++++++++++to 1.17624e-05
Heightened Def Con from 1.17624e-05 +++++++++++++++++to 1.17624e-05
Heightened Def Con from 1.17624e-05 +++++++++++++++++to 1.17624e-05
Heightened Def Con from 1.17624e-05 +++++++++++++++++to 1.17624e-05
Heightened Def Con from 1.17624e-05 +++++++++++++++++to 1.17624e-05
Heightened Def Con from 1.17624e-05 +++++++++++++++++to 1.17624e-05
Heightened Def Con from 1.17624e-05 +++++++++++++++++to 1.17624e-05
Heightened Def Con from 1.17624e-05 +++++++++++++++++to 1.17624e-05
Heightened Def Con from 1.17624e-05 +++++++++++++++++to 1.17624e-05
Heightened Def Con from 1.17624e-05 +++++++++++++++++to 1.17624e-05
Heightened Def Con from 1.17624e-05 +++++++++++++++++to 1.17624e-05
Heightened Def Con from 1.17624e-05 +++++++++++++++++to 1.17624e-05
Heightened Def Con from 1.17624e-05 +++++++++++++++++to 1.17624e-05
Heightened Def Con from 1.17624e-05 +++++++++++++++++to 1.17624e-05
Heightened Def Con from 1.17624e-05 +++++++++++++++++to 1.17624e-05
Heightened Def Con from 1.17624e-05 +++++++++++++++++to 1.17624e-05
Heightened Def Con from 1.17624e-05 +++++++++++++++++to 1.17624e-05
Heightened Def Con from 1.17624e-05 +++++++++++++++++to 1.17624e-05
Heightened Def Con from 1.17624e-05 +++++++++++++++++to 1.17624e-05
Heightened Def Con from 1.17624e-05 +++++++++++++++++to 1.17624e-05
Heightened Def Con from 1.17624e-05 +++++++++++++++++to 1.17624e-05
Heightened Def Con from 1.17624e-05 +++++++++++++++++to 1.17624e-05
Heightened Def Con from 1.17624e-05 +++++++++++++++++to 1.17624e-05
Heightened Def Con from 1.17624e-05 +++++++++++++++++to 1.17624e-05
Heightened Def Con from 1.17624e-05 +++++++++++++++++to 1.17624e-05
Heightened Def Con from 1.17624e-05 +++++++++++++++++to 1.17624e-05
Heightened Def Con from 1.17624e-05 +++++++++++++++++to 1.17624e-05
Heightened Def Con from 1.17624e-05 +++++++++++++++++to 1.17624e-05
Heightened Def Con from 1.17624e-05 +++++++++++++++++to 1.17624e-05
Heightened Def Con from 1.17624e-05 +++++++++++++++++to 1.17624e-05
Heightened Def Con from 1.17624e-05 +++++++++++++++++to 1.17624e-05
Heightened Def Con from 1.17624e-05 +++++++++++++++++to 1.17624e-05
Heightened Def Con from 1.17624e-05 +++++++++++++++++to 1.17624e-05
Heightened Def Con from 1.17624e-05 +++++++++++++++++to 1.17624e-05
Heightened Def Con from 1.17624e-05 +++++++++++++++++to 1.17624e-05
Heightened Def Con from 1.17624e-05 +++++++++++++++++to 1.17624e-05
Heightened Def Con from 1.17624e-05 +++++++++++++++++to 1.17624e-05
Heightened Def Con from 1.17624e-05 +++++++++++++++++to 1.17624e-05
Heightened Def Con from 1.17624e-05 +++++++++++++++++to 1.17624e-05
Heightened Def Con from 1.17624e-05 +++++++++++++++++to 1.17624e-05
Heightened Def Con from 1.17624e-05 +++++++++++++++++to 1.17624e-05
Heightened Def Con from 1.17624e-05 +++++++++++++++++to 1.17624e-05
Heightened Def Con from 1.17624e-05 +++++++++++++++++to 1.17624e-05
Heightened Def Con from 1.17624e-05 +++++++++++++++++to 1.17624e-05
Heightened Def Con from 1.17624e-05 +++++++++++++++++to 1.17624e-05
Heightened Def Con from 1.17624e-05 +++++++++++++++++to 1.17624e-05
Heightened Def Con from 1.17624e-05 +++++++++++++++++to 1.17624e-05
Heightened Def Con from 1.17624e-05 +++++++++++++++++to 1.17624e-05
Heightened Def Con from 1.17624e-05 +++++++++++++++++to 1.17624e-05
Heightened Def Con from 1.17624e-05 +++++++++++++++++to 1.17624e-05
Heightened Def Con from 1.17624e-05 +++++++++++++++++to 1.17624e-05
Heightened Def Con from 1.17624e-05 +++++++++++++++++to 1.17624e-05
Heightened Def Con from 1.17624e-05 +++++++++++++++++to 1.17624e-05
Heightened Def Con from 1.17624e-05 +++++++++++++++++to 1.17624e-05
Heightened Def Con from 1.17624e-05 +++++++++++++++++to 1.17624e-05
Heightened Def Con from 1.17624e-05 +++++++++++++++++to 1.17624e-05
Heightened Def Con from 1.17624e-05 +++++++++++++++++to 1.17624e-05
Heightened Def Con from 1.17624e-05 +++++++++++++++++to 1.17624e-05
Heightened Def Con from 1.17624e-05 +++++++++++++++++to 1.17624e-05
Heightened Def Con from 1.17624e-05 +++++++++++++++++to 1.17624e-05
Heightened Def Con from 1.17624e-05 +++++++++++++++++to 1.17624e-05
Heightened Def Con from 1.17624e-05 +++++++++++++++++to 1.17624e-05
Heightened Def Con from 1.17624e-05 +++++++++++++++++to 1.17624e-05
Heightened Def Con from 1.17624e-05 +++++++++++++++++to 1.17624e-05
Heightened Def Con from 1.17624e-05 +++++++++++++++++to 1.17624e-05
Heightened Def Con from 1.17624e-05 +++++++++++++++++to 1.17624e-05
Heightened Def Con from 1.17624e-05 +++++++++++++++++to 1.17624e-05
Heightened Def Con from 1.17624e-05 +++++++++++++++++to 1.17624e-05
Heightened Def Con from 1.17624e-05 +++++++++++++++++to 1.17624e-05
Heightened Def Con from 1.17624e-05 +++++++++++++++++to 1.17624e-05
Heightened Def Con from 1.17624e-05 +++++++++++++++++to 1.17624e-05
Heightened Def Con from 1.17624e-05 +++++++++++++++++to 1.17624e-05
Heightened Def Con from 1.17624e-05 +++++++++++++++++to 1.17624e-05
Heightened Def Con from 1.17624e-05 +++++++++++++++++to 1.17624e-05
Heightened Def Con from 1.17624e-05 +++++++++++++++++to 1.17624e-05
Heightened Def Con from 1.17624e-05 +++++++++++++++++to 1.17624e-05
Heightened Def Con from 1.17624e-05 +++++++++++++++++to 1.17624e-05
Heightened Def Con from 1.17624e-05 +++++++++++++++++to 1.17624e-05
Heightened Def Con from 1.17624e-05 +++++++++++++++++to 1.17624e-05
Heightened Def Con from 1.17624e-05 +++++++++++++++++to 1.17624e-05
Heightened Def Con from 1.17624e-05 +++++++++++++++++to 1.17624e-05
Heightened Def Con from 1.17624e-05 +++++++++++++++++to 1.17624e-05
Heightened Def Con from 1.17624e-05 +++++++++++++++++to 1.17624e-05
Heightened Def Con from 1.17624e-05 +++++++++++++++++to 1.17624e-05
Heightened Def Con from 1.17624e-05 +++++++++++++++++to 1.17624e-05
Heightened Def Con from 1.17624e-05 +++++++++++++++++to 1.17624e-05
Heightened Def Con from 1.17624e-05 +++++++++++++++++to 1.17624e-05
Heightened Def Con from 1.17624e-05 +++++++++++++++++to 1.17624e-05
Heightened Def Con from 1.17624e-05 +++++++++++++++++to 1.17624e-05
Heightened Def Con from 1.17624e-05 +++++++++++++++++to 1.17624e-05
Heightened Def Con from 1.17624e-05 +++++++++++++++++to 1.17624e-05
Heightened Def Con from 1.17624e-05 +++++++++++++++++to 1.17624e-05
Heightened Def Con from 1.17624e-05 +++++++++++++++++to 1.17624e-05
Heightened Def Con from 1.17624e-05 +++++++++++++++++to 1.17624e-05
Heightened Def Con from 1.17624e-05 +++++++++++++++++to 1.17624e-05
Heightened Def Con from 1.17624e-05 +++++++++++++++++to 1.17624e-05
Heightened Def Con from 1.17624e-05 +++++++++++++++++to 1.17624e-05
Heightened Def Con from 1.17624e-05 +++++++++++++++++to 1.17624e-05
Heightened Def Con from 1.17624e-05 +++++++++++++++++to 1.17624e-05
Heightened Def Con from 1.17624e-05 +++++++++++++++++to 1.17624e-05
Heightened Def Con from 1.17624e-05 +++++++++++++++++to 1.17624e-05
Heightened Def Con from 1.17624e-05 +++++++++++++++++to 1.17624e-05
Heightened Def Con from 1.17624e-05 +++++++++++++++++to 1.17624e-05
Heightened Def Con from 1.17624e-05 +++++++++++++++++to 1.17624e-05
Heightened Def Con from 1.17624e-05 +++++++++++++++++to 1.17624e-05
Heightened Def Con from 1.17624e-05 +++++++++++++++++to 1.17624e-05
Heightened Def Con from 1.17624e-05 +++++++++++++++++to 1.17624e-05
Heightened Def Con from 1.17624e-05 +++++++++++++++++to 1.17624e-05
Heightened Def Con from 1.17624e-05 +++++++++++++++++to 1.17624e-05
Heightened Def Con from 1.17624e-05 +++++++++++++++++to 1.17624e-05
Heightened Def Con from 1.17624e-05 +++++++++++++++++to 1.17624e-05
Heightened Def Con from 1.17624e-05 +++++++++++++++++to 1.17624e-05
Heightened Def Con from 1.17624e-05 +++++++++++++++++to 1.17624e-05
Heightened Def Con from 1.17624e-05 +++++++++++++++++to 1.17624e-05
Heightened Def Con from 1.17624e-05 +++++++++++++++++to 1.17624e-05
Heightened Def Con from 1.17624e-05 +++++++++++++++++to 1.17624e-05
Heightened Def Con from 1.17624e-05 +++++++++++++++++to 1.17624e-05
Heightened Def Con from 1.17624e-05 +++++++++++++++++to 1.17624e-05
Heightened Def Con from 1.17624e-05 +++++++++++++++++to 1.17624e-05
Heightened Def Con from 1.17624e-05 +++++++++++++++++to 1.17624e-05
Heightened Def Con from 1.17624e-05 +++++++++++++++++to 1.17624e-05
Heightened Def Con from 1.17624e-05 +++++++++++++++++to 1.17624e-05
Heightened Def Con from 1.17624e-05 +++++++++++++++++to 1.17624e-05
Heightened Def Con from 1.17624e-05 +++++++++++++++++to 1.17624e-05
Heightened Def Con from 1.17624e-05 +++++++++++++++++to 1.17624e-05
Heightened Def Con from 1.17624e-05 +++++++++++++++++to 1.17624e-05
Heightened Def Con from 1.17624e-05 +++++++++++++++++to 1.17624e-05
Heightened Def Con from 1.17624e-05 +++++++++++++++++to 1.17624e-05
Heightened Def Con from 1.17624e-05 +++++++++++++++++to 1.17624e-05
Heightened Def Con from 1.17624e-05 +++++++++++++++++to 1.17624e-05
Heightened Def Con from 1.17624e-05 +++++++++++++++++to 1.17624e-05
Heightened Def Con from 1.17624e-05 +++++++++++++++++to 1.17624e-05
Heightened Def Con from 1.17624e-05 +++++++++++++++++to 1.17624e-05
Heightened Def Con from 1.17624e-05 +++++++++++++++++to 1.17624e-05
Heightened Def Con from 1.17624e-05 +++++++++++++++++to 1.17624e-05
Heightened Def Con from 1.17624e-05 +++++++++++++++++to 1.17624e-05
Heightened Def Con from 1.17624e-05 +++++++++++++++++to 1.17624e-05
Heightened Def Con from 1.17624e-05 +++++++++++++++++to 1.17624e-05
Heightened Def Con from 1.17624e-05 +++++++++++++++++to 1.17624e-05
Heightened Def Con from 1.17624e-05 +++++++++++++++++to 1.17624e-05
Heightened Def Con from 1.17624e-05 +++++++++++++++++to 1.17624e-05
Heightened Def Con from 1.17624e-05 +++++++++++++++++to 1.17624e-05
Heightened Def Con from 1.17624e-05 +++++++++++++++++to 1.17624e-05
Heightened Def Con from 1.17624e-05 +++++++++++++++++to 1.17624e-05
Heightened Def Con from 1.17624e-05 +++++++++++++++++to 1.17624e-05
Heightened Def Con from 1.17624e-05 +++++++++++++++++to 1.17624e-05
Heightened Def Con from 1.17624e-05 +++++++++++++++++to 1.17624e-05
Heightened Def Con from 1.17624e-05 +++++++++++++++++to 1.17624e-05
Heightened Def Con from 1.17624e-05 +++++++++++++++++to 1.17624e-05
Heightened Def Con from 1.17624e-05 +++++++++++++++++to 1.17624e-05
Heightened Def Con from 1.17624e-05 +++++++++++++++++to 1.17624e-05
Heightened Def Con from 1.17624e-05 +++++++++++++++++to 1.17624e-05
Heightened Def Con from 1.17624e-05 +++++++++++++++++to 1.17624e-05
Heightened Def Con from 1.17624e-05 +++++++++++++++++to 1.17624e-05
Heightened Def Con from 1.17624e-05 +++++++++++++++++to 1.17624e-05
Heightened Def Con from 1.17624e-05 +++++++++++++++++to 1.17624e-05
Heightened Def Con from 1.17624e-05 +++++++++++++++++to 1.17624e-05
Heightened Def Con from 1.17624e-05 +++++++++++++++++to 1.17624e-05
Heightened Def Con from 1.17624e-05 +++++++++++++++++to 1.17624e-05
Heightened Def Con from 1.17624e-05 +++++++++++++++++to 1.17624e-05
Heightened Def Con from 1.17624e-05 +++++++++++++++++to 1.17624e-05
Heightened Def Con from 1.17624e-05 +++++++++++++++++to 1.17624e-05
Heightened Def Con from 1.17624e-05 +++++++++++++++++to 1.17624e-05
Heightened Def Con from 1.17624e-05 +++++++++++++++++to 1.17624e-05
Heightened Def Con from 1.17624e-05 +++++++++++++++++to 1.17624e-05
Heightened Def Con from 1.17624e-05 +++++++++++++++++to 1.17624e-05
Heightened Def Con from 1.17624e-05 +++++++++++++++++to 1.17624e-05
Heightened Def Con from 1.17624e-05 +++++++++++++++++to 1.17624e-05
Heightened Def Con from 1.17624e-05 +++++++++++++++++to 1.17624e-05
Heightened Def Con from 1.17624e-05 +++++++++++++++++to 1.17624e-05
Heightened Def Con from 1.17624e-05 +++++++++++++++++to 1.17624e-05
Heightened Def Con from 1.17624e-05 +++++++++++++++++to 1.17624e-05
Heightened Def Con from 1.17624e-05 +++++++++++++++++to 1.17624e-05
Heightened Def Con from 1.17624e-05 +++++++++++++++++to 1.17624e-05
Heightened Def Con from 1.17624e-05 +++++++++++++++++to 1.17624e-05
Heightened Def Con from 1.17624e-05 +++++++++++++++++to 1.17624e-05
Heightened Def Con from 1.17624e-05 +++++++++++++++++to 1.17624e-05
Heightened Def Con from 1.17624e-05 +++++++++++++++++to 1.17624e-05
Heightened Def Con from 1.17624e-05 +++++++++++++++++to 1.17624e-05
Heightened Def Con from 1.17624e-05 +++++++++++++++++to 1.17624e-05
Heightened Def Con from 1.17624e-05 +++++++++++++++++to 1.17624e-05
Heightened Def Con from 1.17624e-05 +++++++++++++++++to 1.17624e-05
Heightened Def Con from 1.17624e-05 +++++++++++++++++to 1.17624e-05
Heightened Def Con from 1.17624e-05 +++++++++++++++++to 1.17624e-05
Heightened Def Con from 1.17624e-05 +++++++++++++++++to 1.17624e-05
Heightened Def Con from 1.17624e-05 +++++++++++++++++to 1.17624e-05
Heightened Def Con from 1.17624e-05 +++++++++++++++++to 1.17624e-05
Heightened Def Con from 1.17624e-05 +++++++++++++++++to 1.17624e-05
Heightened Def Con from 1.17624e-05 +++++++++++++++++to 1.17624e-05
Heightened Def Con from 1.17624e-05 +++++++++++++++++to 1.17624e-05
Heightened Def Con from 1.17624e-05 +++++++++++++++++to 1.17624e-05
Heightened Def Con from 1.17624e-05 +++++++++++++++++to 1.17624e-05
Heightened Def Con from 1.17624e-05 +++++++++++++++++to 1.17624e-05
Heightened Def Con from 1.17624e-05 +++++++++++++++++to 1.17624e-05
Heightened Def Con from 1.17624e-05 +++++++++++++++++to 1.17624e-05
Heightened Def Con from 1.17624e-05 +++++++++++++++++to 1.17624e-05
Heightened Def Con from 1.17624e-05 +++++++++++++++++to 1.17624e-05
Heightened Def Con from 1.17624e-05 +++++++++++++++++to 1.17624e-05
Heightened Def Con from 1.17624e-05 +++++++++++++++++to 1.17624e-05
Heightened Def Con from 1.17624e-05 +++++++++++++++++to 1.17624e-05
Heightened Def Con from 1.17624e-05 +++++++++++++++++to 1.17624e-05
Heightened Def Con from 1.17624e-05 +++++++++++++++++to 1.17624e-05
Heightened Def Con from 1.17624e-05 +++++++++++++++++to 1.17624e-05
Heightened Def Con from 1.17624e-05 +++++++++++++++++to 1.17624e-05
Heightened Def Con from 1.17624e-05 +++++++++++++++++to 1.17624e-05
Heightened Def Con from 1.17624e-05 +++++++++++++++++to 1.17624e-05
Heightened Def Con from 1.17624e-05 +++++++++++++++++to 1.17624e-05
Heightened Def Con from 1.17624e-05 +++++++++++++++++to 1.17624e-05
Heightened Def Con from 1.17624e-05 +++++++++++++++++to 1.17624e-05
Heightened Def Con from 1.17624e-05 +++++++++++++++++to 1.17624e-05
Heightened Def Con from 1.17624e-05 +++++++++++++++++to 1.17624e-05
Heightened Def Con from 1.17624e-05 +++++++++++++++++to 1.17624e-05
Heightened Def Con from 1.17624e-05 +++++++++++++++++to 1.17624e-05
Heightened Def Con from 1.17624e-05 +++++++++++++++++to 1.17624e-05
Heightened Def Con from 1.17624e-05 +++++++++++++++++to 1.17624e-05
Heightened Def Con from 1.17624e-05 +++++++++++++++++to 1.17624e-05
Heightened Def Con from 1.17624e-05 +++++++++++++++++to 1.17624e-05
Heightened Def Con from 1.17624e-05 +++++++++++++++++to 1.17624e-05
Heightened Def Con from 1.17624e-05 +++++++++++++++++to 1.17624e-05
Heightened Def Con from 1.17624e-05 +++++++++++++++++to 1.17624e-05
Heightened Def Con from 1.17624e-05 +++++++++++++++++to 1.17624e-05
Heightened Def Con from 1.17624e-05 +++++++++++++++++to 1.17624e-05
Heightened Def Con from 1.17624e-05 +++++++++++++++++to 1.17624e-05
Heightened Def Con from 1.17624e-05 +++++++++++++++++to 1.17624e-05
Heightened Def Con from 1.17624e-05 +++++++++++++++++to 1.17624e-05
Heightened Def Con from 1.17624e-05 +++++++++++++++++to 1.17624e-05
Heightened Def Con from 1.17624e-05 +++++++++++++++++to 1.17624e-05
Heightened Def Con from 1.17624e-05 +++++++++++++++++to 1.17624e-05
Heightened Def Con from 1.17624e-05 +++++++++++++++++to 1.17624e-05
Heightened Def Con from 1.17624e-05 +++++++++++++++++to 1.17624e-05
Heightened Def Con from 1.17624e-05 +++++++++++++++++to 1.17624e-05
Heightened Def Con from 1.17624e-05 +++++++++++++++++to 1.17624e-05
Heightened Def Con from 1.17624e-05 +++++++++++++++++to 1.17624e-05
Heightened Def Con from 1.17624e-05 +++++++++++++++++to 1.17624e-05
Heightened Def Con from 1.17624e-05 +++++++++++++++++to 1.17624e-05
Heightened Def Con from 1.17624e-05 +++++++++++++++++to 1.17624e-05
Heightened Def Con from 1.17624e-05 +++++++++++++++++to 1.17624e-05
Heightened Def Con from 1.17624e-05 +++++++++++++++++to 1.17624e-05
Heightened Def Con from 1.17624e-05 +++++++++++++++++to 1.17624e-05
Heightened Def Con from 1.17624e-05 +++++++++++++++++to 1.17624e-05
Heightened Def Con from 1.17624e-05 +++++++++++++++++to 1.17624e-05
Heightened Def Con from 1.17624e-05 +++++++++++++++++to 1.17624e-05
Heightened Def Con from 1.17624e-05 +++++++++++++++++to 1.17624e-05
Heightened Def Con from 1.17624e-05 +++++++++++++++++to 1.17624e-05
Heightened Def Con from 1.17624e-05 +++++++++++++++++to 1.17624e-05
Heightened Def Con from 1.17624e-05 +++++++++++++++++to 1.17624e-05
Heightened Def Con from 1.17624e-05 +++++++++++++++++to 1.17624e-05
Heightened Def Con from 1.17624e-05 +++++++++++++++++to 1.17624e-05
Heightened Def Con from 1.17624e-05 +++++++++++++++++to 1.17624e-05
Heightened Def Con from 1.17624e-05 +++++++++++++++++to 1.17624e-05
Heightened Def Con from 1.17624e-05 +++++++++++++++++to 1.17624e-05
Heightened Def Con from 1.17624e-05 +++++++++++++++++to 1.17624e-05
Heightened Def Con from 1.17624e-05 +++++++++++++++++to 1.17624e-05
Heightened Def Con from 1.17624e-05 +++++++++++++++++to 1.17624e-05
Heightened Def Con from 1.17624e-05 +++++++++++++++++to 1.17624e-05
Heightened Def Con from 1.17624e-05 +++++++++++++++++to 1.17624e-05
Heightened Def Con from 1.17624e-05 +++++++++++++++++to 1.17624e-05
Heightened Def Con from 1.17624e-05 +++++++++++++++++to 1.17624e-05
Heightened Def Con from 1.17624e-05 +++++++++++++++++to 1.17624e-05
Heightened Def Con from 1.17624e-05 +++++++++++++++++to 1.17624e-05
Heightened Def Con from 1.17624e-05 +++++++++++++++++to 1.17624e-05
Heightened Def Con from 1.17624e-05 +++++++++++++++++to 1.17624e-05
Heightened Def Con from 1.17624e-05 +++++++++++++++++to 1.17624e-05
Heightened Def Con from 1.17624e-05 +++++++++++++++++to 1.17624e-05
Heightened Def Con from 1.17624e-05 +++++++++++++++++to 1.17624e-05
Heightened Def Con from 1.17624e-05 +++++++++++++++++to 1.17624e-05
Heightened Def Con from 1.17624e-05 +++++++++++++++++to 1.17624e-05
Heightened Def Con from 1.17624e-05 +++++++++++++++++to 1.17624e-05
Heightened Def Con from 1.17624e-05 +++++++++++++++++to 1.17624e-05
Heightened Def Con from 1.17624e-05 +++++++++++++++++to 1.17624e-05
Heightened Def Con from 1.17624e-05 +++++++++++++++++to 1.17624e-05
Heightened Def Con from 1.17624e-05 +++++++++++++++++to 1.17624e-05
Heightened Def Con from 1.17624e-05 +++++++++++++++++to 1.17624e-05
Heightened Def Con from 1.17624e-05 +++++++++++++++++to 1.17624e-05
Heightened Def Con from 1.17624e-05 +++++++++++++++++to 1.17624e-05
Heightened Def Con from 1.17624e-05 +++++++++++++++++to 1.17624e-05
Heightened Def Con from 1.17624e-05 +++++++++++++++++to 1.17624e-05
Heightened Def Con from 1.17624e-05 +++++++++++++++++to 1.17624e-05
Heightened Def Con from 1.17624e-05 +++++++++++++++++to 1.17624e-05
Heightened Def Con from 1.17624e-05 +++++++++++++++++to 1.17624e-05
Heightened Def Con from 1.17624e-05 +++++++++++++++++to 1.17624e-05
Heightened Def Con from 1.17624e-05 +++++++++++++++++to 1.17624e-05
Heightened Def Con from 1.17624e-05 +++++++++++++++++to 1.17624e-05
Heightened Def Con from 1.17624e-05 +++++++++++++++++to 1.17624e-05
Heightened Def Con from 1.17624e-05 +++++++++++++++++to 1.17624e-05
Heightened Def Con from 1.17624e-05 +++++++++++++++++to 1.17624e-05
Heightened Def Con from 1.17624e-05 +++++++++++++++++to 1.17624e-05
Heightened Def Con from 1.17624e-05 +++++++++++++++++to 1.17624e-05
Heightened Def Con from 1.17624e-05 +++++++++++++++++to 1.17624e-05
Heightened Def Con from 1.17624e-05 +++++++++++++++++to 1.17624e-05
Heightened Def Con from 1.17624e-05 +++++++++++++++++to 1.17624e-05
Heightened Def Con from 1.17624e-05 +++++++++++++++++to 1.17624e-05
Heightened Def Con from 1.17624e-05 +++++++++++++++++to 1.17624e-05
Heightened Def Con from 1.17624e-05 +++++++++++++++++to 1.17624e-05
Heightened Def Con from 1.17624e-05 +++++++++++++++++to 1.17624e-05
Heightened Def Con from 1.17624e-05 +++++++++++++++++to 1.17624e-05
Heightened Def Con from 1.17624e-05 +++++++++++++++++to 1.17624e-05
Heightened Def Con from 1.17624e-05 +++++++++++++++++to 1.17624e-05
Heightened Def Con from 1.17624e-05 +++++++++++++++++to 1.17624e-05
Heightened Def Con from 1.17624e-05 +++++++++++++++++to 1.17624e-05
Heightened Def Con from 1.17624e-05 +++++++++++++++++to 1.17624e-05
Heightened Def Con from 1.17624e-05 +++++++++++++++++to 1.17624e-05
Heightened Def Con from 1.17624e-05 +++++++++++++++++to 1.17624e-05
Heightened Def Con from 1.17624e-05 +++++++++++++++++to 1.17624e-05
Heightened Def Con from 1.17624e-05 +++++++++++++++++to 1.17624e-05
Heightened Def Con from 1.17624e-05 +++++++++++++++++to 1.17624e-05
Heightened Def Con from 1.17624e-05 +++++++++++++++++to 1.17624e-05
Heightened Def Con from 1.17624e-05 +++++++++++++++++to 1.17624e-05
Heightened Def Con from 1.17624e-05 +++++++++++++++++to 1.17624e-05
Heightened Def Con from 1.17624e-05 +++++++++++++++++to 1.17624e-05
Heightened Def Con from 1.17624e-05 +++++++++++++++++to 1.17624e-05
Heightened Def Con from 1.17624e-05 +++++++++++++++++to 1.17624e-05
Heightened Def Con from 1.17624e-05 +++++++++++++++++to 1.17624e-05
Heightened Def Con from 1.17624e-05 +++++++++++++++++to 1.17624e-05
Heightened Def Con from 1.17624e-05 +++++++++++++++++to 1.17624e-05
Heightened Def Con from 1.17624e-05 +++++++++++++++++to 1.17624e-05
Heightened Def Con from 1.17624e-05 +++++++++++++++++to 1.17624e-05
Heightened Def Con from 1.17624e-05 +++++++++++++++++to 1.17624e-05
Heightened Def Con from 1.17624e-05 +++++++++++++++++to 1.17624e-05
Heightened Def Con from 1.17624e-05 +++++++++++++++++to 1.17624e-05
Heightened Def Con from 1.17624e-05 +++++++++++++++++to 1.17624e-05
Heightened Def Con from 1.17624e-05 +++++++++++++++++to 1.17624e-05
Heightened Def Con from 1.17624e-05 +++++++++++++++++to 1.17624e-05
Heightened Def Con from 1.17624e-05 +++++++++++++++++to 1.17624e-05
Heightened Def Con from 1.17624e-05 +++++++++++++++++to 1.17624e-05
Heightened Def Con from 1.17624e-05 +++++++++++++++++to 1.17624e-05
Heightened Def Con from 1.17624e-05 +++++++++++++++++to 1.17624e-05
Heightened Def Con from 1.17624e-05 +++++++++++++++++to 1.17624e-05
Heightened Def Con from 1.17624e-05 +++++++++++++++++to 1.17624e-05
Heightened Def Con from 1.17624e-05 +++++++++++++++++to 1.17624e-05
Heightened Def Con from 1.17624e-05 +++++++++++++++++to 1.17624e-05
Heightened Def Con from 1.17624e-05 +++++++++++++++++to 1.17624e-05
Heightened Def Con from 1.17624e-05 +++++++++++++++++to 1.17624e-05
Heightened Def Con from 1.17624e-05 +++++++++++++++++to 1.17624e-05
Heightened Def Con from 1.17624e-05 +++++++++++++++++to 1.17624e-05
Heightened Def Con from 1.17624e-05 +++++++++++++++++to 1.17624e-05
Heightened Def Con from 1.17624e-05 +++++++++++++++++to 1.17624e-05
Heightened Def Con from 1.17624e-05 +++++++++++++++++to 1.17624e-05
Heightened Def Con from 1.17624e-05 +++++++++++++++++to 1.17624e-05
Heightened Def Con from 1.17624e-05 +++++++++++++++++to 1.17624e-05
Heightened Def Con from 1.17624e-05 +++++++++++++++++to 1.17624e-05
Heightened Def Con from 1.17624e-05 +++++++++++++++++to 1.17624e-05
Heightened Def Con from 1.17624e-05 +++++++++++++++++to 1.17624e-05
Heightened Def Con from 1.17624e-05 +++++++++++++++++to 1.17624e-05
Heightened Def Con from 1.17624e-05 +++++++++++++++++to 1.17624e-05
Heightened Def Con from 1.17624e-05 +++++++++++++++++to 1.17624e-05
Heightened Def Con from 1.17624e-05 +++++++++++++++++to 1.17624e-05
Heightened Def Con from 1.17624e-05 +++++++++++++++++to 1.17624e-05
Heightened Def Con from 1.17624e-05 +++++++++++++++++to 1.17624e-05
Heightened Def Con from 1.17624e-05 +++++++++++++++++to 1.17624e-05
Heightened Def Con from 1.17624e-05 +++++++++++++++++to 1.17624e-05
Heightened Def Con from 1.17624e-05 +++++++++++++++++to 1.17624e-05
Heightened Def Con from 1.17624e-05 +++++++++++++++++to 1.17624e-05
Heightened Def Con from 1.17624e-05 +++++++++++++++++to 1.17624e-05
Heightened Def Con from 1.17624e-05 +++++++++++++++++to 1.17624e-05
Heightened Def Con from 1.17624e-05 +++++++++++++++++to 1.17624e-05
Heightened Def Con from 1.17624e-05 +++++++++++++++++to 1.17624e-05
Heightened Def Con from 1.17624e-05 +++++++++++++++++to 1.17624e-05
Heightened Def Con from 1.17624e-05 +++++++++++++++++to 1.17624e-05
Heightened Def Con from 1.17624e-05 +++++++++++++++++to 1.17624e-05
Heightened Def Con from 1.17624e-05 +++++++++++++++++to 1.17624e-05
Heightened Def Con from 1.17624e-05 +++++++++++++++++to 1.17624e-05
Heightened Def Con from 1.17624e-05 +++++++++++++++++to 1.17624e-05
Heightened Def Con from 1.17624e-05 +++++++++++++++++to 1.17624e-05
Heightened Def Con from 1.17624e-05 +++++++++++++++++to 1.17624e-05
Heightened Def Con from 1.17624e-05 +++++++++++++++++to 1.17624e-05
Heightened Def Con from 1.17624e-05 +++++++++++++++++to 1.17624e-05
Heightened Def Con from 1.17624e-05 +++++++++++++++++to 1.17624e-05
Heightened Def Con from 1.17624e-05 +++++++++++++++++to 1.17624e-05
Heightened Def Con from 1.17624e-05 +++++++++++++++++to 1.17624e-05
Heightened Def Con from 1.17624e-05 +++++++++++++++++to 1.17624e-05
Heightened Def Con from 1.17624e-05 +++++++++++++++++to 1.17624e-05
Heightened Def Con from 1.17624e-05 +++++++++++++++++to 1.17624e-05
Heightened Def Con from 1.17624e-05 +++++++++++++++++to 1.17624e-05
Heightened Def Con from 1.17624e-05 +++++++++++++++++to 1.17624e-05
Heightened Def Con from 1.17624e-05 +++++++++++++++++to 1.17624e-05
Heightened Def Con from 1.17624e-05 +++++++++++++++++to 1.17624e-05
Heightened Def Con from 1.17624e-05 +++++++++++++++++to 1.17624e-05
Heightened Def Con from 1.17624e-05 +++++++++++++++++to 1.17624e-05
Heightened Def Con from 1.17624e-05 +++++++++++++++++to 1.17624e-05
Heightened Def Con from 1.17624e-05 +++++++++++++++++to 1.17624e-05
Heightened Def Con from 1.17624e-05 +++++++++++++++++to 1.17624e-05
Heightened Def Con from 1.17624e-05 +++++++++++++++++to 1.17624e-05
Heightened Def Con from 1.17624e-05 +++++++++++++++++to 1.17624e-05
Heightened Def Con from 1.17624e-05 +++++++++++++++++to 1.17624e-05
Heightened Def Con from 1.17624e-05 +++++++++++++++++to 1.17624e-05
Heightened Def Con from 1.17624e-05 +++++++++++++++++to 1.17624e-05
Heightened Def Con from 1.17624e-05 +++++++++++++++++to 1.17624e-05
Heightened Def Con from 1.17624e-05 +++++++++++++++++to 1.17624e-05
Heightened Def Con from 1.17624e-05 +++++++++++++++++to 1.17624e-05
Heightened Def Con from 1.17624e-05 +++++++++++++++++to 1.17624e-05
Heightened Def Con from 1.17624e-05 +++++++++++++++++to 1.17624e-05
Heightened Def Con from 1.17624e-05 +++++++++++++++++to 1.17624e-05
Heightened Def Con from 1.17624e-05 +++++++++++++++++to 1.17624e-05
Heightened Def Con from 1.17624e-05 +++++++++++++++++to 1.17624e-05
Heightened Def Con from 1.17624e-05 +++++++++++++++++to 1.17624e-05
Heightened Def Con from 1.17624e-05 +++++++++++++++++to 1.17624e-05
Heightened Def Con from 1.17624e-05 +++++++++++++++++to 1.17624e-05
Heightened Def Con from 1.17624e-05 +++++++++++++++++to 1.17624e-05
Heightened Def Con from 1.17624e-05 +++++++++++++++++to 1.17624e-05
Heightened Def Con from 1.17624e-05 +++++++++++++++++to 1.17624e-05
Heightened Def Con from 1.17624e-05 +++++++++++++++++to 1.17624e-05
Heightened Def Con from 1.17624e-05 +++++++++++++++++to 1.17624e-05
Heightened Def Con from 1.17624e-05 +++++++++++++++++to 1.17624e-05
Heightened Def Con from 1.17624e-05 +++++++++++++++++to 1.17624e-05
Heightened Def Con from 1.17624e-05 +++++++++++++++++to 1.17624e-05
Heightened Def Con from 1.17624e-05 +++++++++++++++++to 1.17624e-05
Heightened Def Con from 1.17624e-05 +++++++++++++++++to 1.17624e-05
Heightened Def Con from 1.17624e-05 +++++++++++++++++to 1.17624e-05
Heightened Def Con from 1.17624e-05 +++++++++++++++++to 1.17624e-05
Heightened Def Con from 1.17624e-05 +++++++++++++++++to 1.17624e-05
Heightened Def Con from 1.17624e-05 +++++++++++++++++to 1.17624e-05
Heightened Def Con from 1.17624e-05 +++++++++++++++++to 1.17624e-05
Heightened Def Con from 1.17624e-05 +++++++++++++++++to 1.17624e-05
Heightened Def Con from 1.17624e-05 +++++++++++++++++to 1.17624e-05
Heightened Def Con from 1.17624e-05 +++++++++++++++++to 1.17624e-05
Heightened Def Con from 1.17624e-05 +++++++++++++++++to 1.17624e-05
Heightened Def Con from 1.17624e-05 +++++++++++++++++to 1.17624e-05
Heightened Def Con from 1.17624e-05 +++++++++++++++++to 1.17624e-05
Heightened Def Con from 1.17624e-05 +++++++++++++++++to 1.17624e-05
Heightened Def Con from 1.17624e-05 +++++++++++++++++to 1.17624e-05
Heightened Def Con from 1.17624e-05 +++++++++++++++++to 1.17624e-05
Heightened Def Con from 1.17624e-05 +++++++++++++++++to 1.17624e-05
Heightened Def Con from 1.17624e-05 +++++++++++++++++to 1.17624e-05
Heightened Def Con from 1.17624e-05 +++++++++++++++++to 1.17624e-05
Heightened Def Con from 1.17624e-05 +++++++++++++++++to 1.17624e-05
Heightened Def Con from 1.17624e-05 +++++++++++++++++to 1.17624e-05
Heightened Def Con from 1.17624e-05 +++++++++++++++++to 1.17624e-05
Heightened Def Con from 1.17624e-05 +++++++++++++++++to 1.17624e-05
Heightened Def Con from 1.17624e-05 +++++++++++++++++to 1.17624e-05
Heightened Def Con from 1.17624e-05 +++++++++++++++++to 1.17624e-05
Heightened Def Con from 1.17624e-05 +++++++++++++++++to 1.17624e-05
Heightened Def Con from 1.17624e-05 +++++++++++++++++to 1.17624e-05
Heightened Def Con from 1.17624e-05 +++++++++++++++++to 1.17624e-05
Heightened Def Con from 1.17624e-05 +++++++++++++++++to 1.17624e-05
Heightened Def Con from 1.17624e-05 +++++++++++++++++to 1.17624e-05
Heightened Def Con from 1.17624e-05 +++++++++++++++++to 1.17624e-05
Heightened Def Con from 1.17624e-05 +++++++++++++++++to 1.17624e-05
Heightened Def Con from 1.17624e-05 +++++++++++++++++to 1.17624e-05
Heightened Def Con from 1.17624e-05 +++++++++++++++++to 1.17624e-05
Heightened Def Con from 1.17624e-05 +++++++++++++++++to 1.17624e-05
Heightened Def Con from 1.17624e-05 +++++++++++++++++to 1.17624e-05
Heightened Def Con from 1.17624e-05 +++++++++++++++++to 1.17624e-05
Heightened Def Con from 1.17624e-05 +++++++++++++++++to 1.17624e-05
Heightened Def Con from 1.17624e-05 +++++++++++++++++to 1.17624e-05
Heightened Def Con from 1.17624e-05 +++++++++++++++++to 1.17624e-05
Heightened Def Con from 1.17624e-05 +++++++++++++++++to 1.17624e-05
Heightened Def Con from 1.17624e-05 +++++++++++++++++to 1.17624e-05
Heightened Def Con from 1.17624e-05 +++++++++++++++++to 1.17624e-05
Heightened Def Con from 1.17624e-05 +++++++++++++++++to 1.17624e-05
Heightened Def Con from 1.17624e-05 +++++++++++++++++to 1.17624e-05
Heightened Def Con from 1.17624e-05 +++++++++++++++++to 1.17624e-05
Heightened Def Con from 1.17624e-05 +++++++++++++++++to 1.17624e-05
Heightened Def Con from 1.17624e-05 +++++++++++++++++to 1.17624e-05
Heightened Def Con from 1.17624e-05 +++++++++++++++++to 1.17624e-05
Heightened Def Con from 1.17624e-05 +++++++++++++++++to 1.17624e-05
Heightened Def Con from 1.17624e-05 +++++++++++++++++to 1.17624e-05
Heightened Def Con from 1.17624e-05 +++++++++++++++++to 1.17624e-05
Heightened Def Con from 1.17624e-05 +++++++++++++++++to 1.17624e-05
Heightened Def Con from 1.17624e-05 +++++++++++++++++to 1.17624e-05
Heightened Def Con from 1.17624e-05 +++++++++++++++++to 1.17624e-05
Heightened Def Con from 1.17624e-05 +++++++++++++++++to 1.17624e-05
Heightened Def Con from 1.17624e-05 +++++++++++++++++to 1.17624e-05
Heightened Def Con from 1.17624e-05 +++++++++++++++++to 1.17624e-05
Heightened Def Con from 1.17624e-05 +++++++++++++++++to 1.17624e-05
Heightened Def Con from 1.17624e-05 +++++++++++++++++to 1.17624e-05
Heightened Def Con from 1.17624e-05 +++++++++++++++++to 1.17624e-05
Heightened Def Con from 1.17624e-05 +++++++++++++++++to 1.17624e-05
Heightened Def Con from 1.17624e-05 +++++++++++++++++to 1.17624e-05
Heightened Def Con from 1.17624e-05 +++++++++++++++++to 1.17624e-05
Heightened Def Con from 1.17624e-05 +++++++++++++++++to 1.17624e-05
Heightened Def Con from 1.17624e-05 +++++++++++++++++to 1.17624e-05
Heightened Def Con from 1.17624e-05 +++++++++++++++++to 1.17624e-05
Heightened Def Con from 1.17624e-05 +++++++++++++++++to 1.17624e-05
Heightened Def Con from 1.17624e-05 +++++++++++++++++to 1.17624e-05
Heightened Def Con from 1.17624e-05 +++++++++++++++++to 1.17624e-05
Heightened Def Con from 1.17624e-05 +++++++++++++++++to 1.17624e-05
Heightened Def Con from 1.17624e-05 +++++++++++++++++to 1.17624e-05
Heightened Def Con from 1.17624e-05 +++++++++++++++++to 1.17624e-05
Heightened Def Con from 1.17624e-05 +++++++++++++++++to 1.17624e-05
Heightened Def Con from 1.17624e-05 +++++++++++++++++to 1.17624e-05
Heightened Def Con from 1.17624e-05 +++++++++++++++++to 1.17624e-05
Heightened Def Con from 1.17624e-05 +++++++++++++++++to 1.17624e-05
Heightened Def Con from 1.17624e-05 +++++++++++++++++to 1.17624e-05
Heightened Def Con from 1.17624e-05 +++++++++++++++++to 1.17624e-05
Heightened Def Con from 1.17624e-05 +++++++++++++++++to 1.17624e-05
Heightened Def Con from 1.17624e-05 +++++++++++++++++to 1.17624e-05
Heightened Def Con from 1.17624e-05 +++++++++++++++++to 1.17624e-05
Heightened Def Con from 1.17624e-05 +++++++++++++++++to 1.17624e-05
Heightened Def Con from 1.17624e-05 +++++++++++++++++to 1.17624e-05
Heightened Def Con from 1.17624e-05 +++++++++++++++++to 1.17624e-05
Heightened Def Con from 1.17624e-05 +++++++++++++++++to 1.17624e-05
Heightened Def Con from 1.17624e-05 +++++++++++++++++to 1.17624e-05
Heightened Def Con from 1.17624e-05 +++++++++++++++++to 1.17624e-05
Heightened Def Con from 1.17624e-05 +++++++++++++++++to 1.17624e-05
Heightened Def Con from 1.17624e-05 +++++++++++++++++to 1.17624e-05
Heightened Def Con from 1.17624e-05 +++++++++++++++++to 1.17624e-05
Heightened Def Con from 1.17624e-05 +++++++++++++++++to 1.17624e-05
Heightened Def Con from 1.17624e-05 +++++++++++++++++to 1.17624e-05
Heightened Def Con from 1.17624e-05 +++++++++++++++++to 1.17624e-05
Heightened Def Con from 1.17624e-05 +++++++++++++++++to 1.17624e-05
Heightened Def Con from 1.17624e-05 +++++++++++++++++to 1.17624e-05
Heightened Def Con from 1.17624e-05 +++++++++++++++++to 1.17624e-05
Heightened Def Con from 1.17624e-05 +++++++++++++++++to 1.17624e-05
Heightened Def Con from 1.17624e-05 +++++++++++++++++to 1.17624e-05
Heightened Def Con from 1.17624e-05 +++++++++++++++++to 1.17624e-05
Heightened Def Con from 1.17624e-05 +++++++++++++++++to 1.17624e-05
Heightened Def Con from 1.17624e-05 +++++++++++++++++to 1.17624e-05
Heightened Def Con from 1.17624e-05 +++++++++++++++++to 1.17624e-05
Heightened Def Con from 1.17624e-05 +++++++++++++++++to 1.17624e-05
Heightened Def Con from 1.17624e-05 +++++++++++++++++to 1.17624e-05
Heightened Def Con from 1.17624e-05 +++++++++++++++++to 1.17624e-05
Heightened Def Con from 1.17624e-05 +++++++++++++++++to 1.17624e-05
Heightened Def Con from 1.17624e-05 +++++++++++++++++to 1.17624e-05
Heightened Def Con from 1.17624e-05 +++++++++++++++++to 1.17624e-05
Heightened Def Con from 1.17624e-05 +++++++++++++++++to 1.17624e-05
Heightened Def Con from 1.17624e-05 +++++++++++++++++to 1.17624e-05
Heightened Def Con from 1.17624e-05 +++++++++++++++++to 1.17624e-05
Heightened Def Con from 1.17624e-05 +++++++++++++++++to 1.17624e-05
Heightened Def Con from 1.17624e-05 +++++++++++++++++to 1.17624e-05
Heightened Def Con from 1.17624e-05 +++++++++++++++++to 1.17624e-05
Heightened Def Con from 1.17624e-05 +++++++++++++++++to 1.17624e-05
Heightened Def Con from 1.17624e-05 +++++++++++++++++to 1.17624e-05
Heightened Def Con from 1.17624e-05 +++++++++++++++++to 1.17624e-05
Heightened Def Con from 1.17624e-05 +++++++++++++++++to 1.17624e-05
Heightened Def Con from 1.17624e-05 +++++++++++++++++to 1.17624e-05
Heightened Def Con from 1.17624e-05 +++++++++++++++++to 1.17624e-05
Heightened Def Con from 1.17624e-05 +++++++++++++++++to 1.17624e-05
Heightened Def Con from 1.17624e-05 +++++++++++++++++to 1.17624e-05
Heightened Def Con from 1.17624e-05 +++++++++++++++++to 1.17624e-05
Heightened Def Con from 1.17624e-05 +++++++++++++++++to 1.17624e-05
Heightened Def Con from 1.17624e-05 +++++++++++++++++to 1.17624e-05
Heightened Def Con from 1.17624e-05 +++++++++++++++++to 1.17624e-05
Heightened Def Con from 1.17624e-05 +++++++++++++++++to 1.17624e-05
Heightened Def Con from 1.17624e-05 +++++++++++++++++to 1.17624e-05
Heightened Def Con from 1.17624e-05 +++++++++++++++++to 1.17624e-05
Heightened Def Con from 1.17624e-05 +++++++++++++++++to 1.17624e-05
Heightened Def Con from 1.17624e-05 +++++++++++++++++to 1.17624e-05
Heightened Def Con from 1.17624e-05 +++++++++++++++++to 1.17624e-05
Heightened Def Con from 1.17624e-05 +++++++++++++++++to 1.17624e-05
Heightened Def Con from 1.17624e-05 +++++++++++++++++to 1.17624e-05
Heightened Def Con from 1.17624e-05 +++++++++++++++++to 1.17624e-05
Heightened Def Con from 1.17624e-05 +++++++++++++++++to 1.17624e-05
Heightened Def Con from 1.17624e-05 +++++++++++++++++to 1.17624e-05
Heightened Def Con from 1.17624e-05 +++++++++++++++++to 1.17624e-05
Heightened Def Con from 1.17624e-05 +++++++++++++++++to 1.17624e-05
Heightened Def Con from 1.17624e-05 +++++++++++++++++to 1.17624e-05
Heightened Def Con from 1.17624e-05 +++++++++++++++++to 1.17624e-05
Heightened Def Con from 1.17624e-05 +++++++++++++++++to 1.17624e-05
Heightened Def Con from 1.17624e-05 +++++++++++++++++to 1.17624e-05
Heightened Def Con from 1.17624e-05 +++++++++++++++++to 1.17624e-05
Heightened Def Con from 1.17624e-05 +++++++++++++++++to 1.17624e-05
Heightened Def Con from 1.17624e-05 +++++++++++++++++to 1.17624e-05
Heightened Def Con from 1.17624e-05 +++++++++++++++++to 1.17624e-05
Heightened Def Con from 1.17624e-05 +++++++++++++++++to 1.17624e-05
Heightened Def Con from 1.17624e-05 +++++++++++++++++to 1.17624e-05
Heightened Def Con from 1.17624e-05 +++++++++++++++++to 1.17624e-05
Heightened Def Con from 1.17624e-05 +++++++++++++++++to 1.17624e-05
Heightened Def Con from 1.17624e-05 +++++++++++++++++to 1.17624e-05
Heightened Def Con from 1.17624e-05 +++++++++++++++++to 1.17624e-05
Heightened Def Con from 1.17624e-05 +++++++++++++++++to 1.17624e-05
Heightened Def Con from 1.17624e-05 +++++++++++++++++to 1.17624e-05
Heightened Def Con from 1.17624e-05 +++++++++++++++++to 1.17624e-05
Heightened Def Con from 1.17624e-05 +++++++++++++++++to 1.17624e-05
Heightened Def Con from 1.17624e-05 +++++++++++++++++to 1.17624e-05
Heightened Def Con from 1.17624e-05 +++++++++++++++++to 1.17624e-05
Heightened Def Con from 1.17624e-05 +++++++++++++++++to 1.17624e-05
Heightened Def Con from 1.17624e-05 +++++++++++++++++to 1.17624e-05
Heightened Def Con from 1.17624e-05 +++++++++++++++++to 1.17624e-05
Heightened Def Con from 1.17624e-05 +++++++++++++++++to 1.17624e-05
Heightened Def Con from 1.17624e-05 +++++++++++++++++to 1.17624e-05
Heightened Def Con from 1.17624e-05 +++++++++++++++++to 1.17624e-05
Heightened Def Con from 1.17624e-05 +++++++++++++++++to 1.17624e-05
Heightened Def Con from 1.17624e-05 +++++++++++++++++to 1.17624e-05
Heightened Def Con from 1.17624e-05 +++++++++++++++++to 1.17624e-05
Heightened Def Con from 1.17624e-05 +++++++++++++++++to 1.17624e-05
Heightened Def Con from 1.17624e-05 +++++++++++++++++to 1.17624e-05
Heightened Def Con from 1.17624e-05 +++++++++++++++++to 1.17624e-05
Heightened Def Con from 1.17624e-05 +++++++++++++++++to 1.17624e-05
Heightened Def Con from 1.17624e-05 +++++++++++++++++to 1.17624e-05
Heightened Def Con from 1.17624e-05 +++++++++++++++++to 1.17624e-05
Heightened Def Con from 1.17624e-05 +++++++++++++++++to 1.17624e-05
Heightened Def Con from 1.17624e-05 +++++++++++++++++to 1.17624e-05
Heightened Def Con from 1.17624e-05 +++++++++++++++++to 1.17624e-05
Heightened Def Con from 1.17624e-05 +++++++++++++++++to 1.17624e-05
Heightened Def Con from 1.17624e-05 +++++++++++++++++to 1.17624e-05
Heightened Def Con from 1.17624e-05 +++++++++++++++++to 1.17624e-05
Heightened Def Con from 1.17624e-05 +++++++++++++++++to 1.17624e-05
Heightened Def Con from 1.17624e-05 +++++++++++++++++to 1.17624e-05
Heightened Def Con from 1.17624e-05 +++++++++++++++++to 1.17624e-05
Heightened Def Con from 1.17624e-05 +++++++++++++++++to 1.17624e-05
Heightened Def Con from 1.17624e-05 +++++++++++++++++to 1.17624e-05
Heightened Def Con from 1.17624e-05 +++++++++++++++++to 1.17624e-05
Heightened Def Con from 1.17624e-05 +++++++++++++++++to 1.17624e-05
Heightened Def Con from 1.17624e-05 +++++++++++++++++to 1.17624e-05
Heightened Def Con from 1.17624e-05 +++++++++++++++++to 1.17624e-05
Heightened Def Con from 1.17624e-05 +++++++++++++++++to 1.17624e-05
Heightened Def Con from 1.17624e-05 +++++++++++++++++to 1.17624e-05
Heightened Def Con from 1.17624e-05 +++++++++++++++++to 1.17624e-05
Heightened Def Con from 1.17624e-05 +++++++++++++++++to 1.17624e-05
Heightened Def Con from 1.17624e-05 +++++++++++++++++to 1.17624e-05
Heightened Def Con from 1.17624e-05 +++++++++++++++++to 1.17624e-05
Heightened Def Con from 1.17624e-05 +++++++++++++++++to 1.17624e-05
Heightened Def Con from 1.17624e-05 +++++++++++++++++to 1.17624e-05
Heightened Def Con from 1.17624e-05 +++++++++++++++++to 1.17624e-05
Heightened Def Con from 1.17624e-05 +++++++++++++++++to 1.17624e-05
Heightened Def Con from 1.17624e-05 +++++++++++++++++to 1.17624e-05
Heightened Def Con from 1.17624e-05 +++++++++++++++++to 1.17624e-05
Heightened Def Con from 1.17624e-05 +++++++++++++++++to 1.17624e-05
Heightened Def Con from 1.17624e-05 +++++++++++++++++to 1.17624e-05
Heightened Def Con from 1.17624e-05 +++++++++++++++++to 1.17624e-05
Heightened Def Con from 1.17624e-05 +++++++++++++++++to 1.17624e-05
Heightened Def Con from 1.17624e-05 +++++++++++++++++to 1.17624e-05
Heightened Def Con from 1.17624e-05 +++++++++++++++++to 1.17624e-05
Heightened Def Con from 1.17624e-05 +++++++++++++++++to 1.17624e-05
Heightened Def Con from 1.17624e-05 +++++++++++++++++to 1.17624e-05
Heightened Def Con from 1.17624e-05 +++++++++++++++++to 1.17624e-05
Heightened Def Con from 1.17624e-05 +++++++++++++++++to 1.17624e-05
Heightened Def Con from 1.17624e-05 +++++++++++++++++to 1.17624e-05
Heightened Def Con from 1.17624e-05 +++++++++++++++++to 1.17624e-05
Heightened Def Con from 1.17624e-05 +++++++++++++++++to 1.17624e-05
Heightened Def Con from 1.17624e-05 +++++++++++++++++to 1.17624e-05
Heightened Def Con from 1.17624e-05 +++++++++++++++++to 1.17624e-05
Heightened Def Con from 1.17624e-05 +++++++++++++++++to 1.17624e-05
Heightened Def Con from 1.17624e-05 +++++++++++++++++to 1.17624e-05
Heightened Def Con from 1.17624e-05 +++++++++++++++++to 1.17624e-05
Heightened Def Con from 1.17624e-05 +++++++++++++++++to 1.17624e-05
Heightened Def Con from 1.17624e-05 +++++++++++++++++to 1.17624e-05
Heightened Def Con from 1.17624e-05 +++++++++++++++++to 1.17624e-05
Heightened Def Con from 1.17624e-05 +++++++++++++++++to 1.17624e-05
Heightened Def Con from 1.17624e-05 +++++++++++++++++to 1.17624e-05
Heightened Def Con from 1.17624e-05 +++++++++++++++++to 1.17624e-05
Heightened Def Con from 1.17624e-05 +++++++++++++++++to 1.17624e-05
Heightened Def Con from 1.17624e-05 +++++++++++++++++to 1.17624e-05
Heightened Def Con from 1.17624e-05 +++++++++++++++++to 1.17624e-05
Heightened Def Con from 1.17624e-05 +++++++++++++++++to 1.17624e-05
Heightened Def Con from 1.17624e-05 +++++++++++++++++to 1.17624e-05
Heightened Def Con from 1.17624e-05 +++++++++++++++++to 1.17624e-05
Heightened Def Con from 1.17624e-05 +++++++++++++++++to 1.17624e-05
Heightened Def Con from 1.17624e-05 +++++++++++++++++to 1.17624e-05
Heightened Def Con from 1.17624e-05 +++++++++++++++++to 1.17624e-05
Heightened Def Con from 1.17624e-05 +++++++++++++++++to 1.17624e-05
Heightened Def Con from 1.17624e-05 +++++++++++++++++to 1.17624e-05
Heightened Def Con from 1.17624e-05 +++++++++++++++++to 1.17624e-05
Heightened Def Con from 1.17624e-05 +++++++++++++++++to 1.17624e-05
Heightened Def Con from 1.17624e-05 +++++++++++++++++to 1.17624e-05
Heightened Def Con from 1.17624e-05 +++++++++++++++++to 1.17624e-05
Heightened Def Con from 1.17624e-05 +++++++++++++++++to 1.17624e-05
Heightened Def Con from 1.17624e-05 +++++++++++++++++to 1.17624e-05
Heightened Def Con from 1.17624e-05 +++++++++++++++++to 1.17624e-05
Heightened Def Con from 1.17624e-05 +++++++++++++++++to 1.17624e-05
Heightened Def Con from 1.17624e-05 +++++++++++++++++to 1.17624e-05
Heightened Def Con from 1.17624e-05 +++++++++++++++++to 1.17624e-05
Heightened Def Con from 1.17624e-05 +++++++++++++++++to 1.17624e-05
Heightened Def Con from 1.17624e-05 +++++++++++++++++to 1.17624e-05
Heightened Def Con from 1.17624e-05 +++++++++++++++++to 1.17624e-05
Heightened Def Con from 1.17624e-05 +++++++++++++++++to 1.17624e-05
Heightened Def Con from 1.17624e-05 +++++++++++++++++to 1.17624e-05
Heightened Def Con from 1.17624e-05 +++++++++++++++++to 1.17624e-05
Heightened Def Con from 1.17624e-05 +++++++++++++++++to 1.17624e-05
Heightened Def Con from 1.17624e-05 +++++++++++++++++to 1.17624e-05
Heightened Def Con from 1.17624e-05 +++++++++++++++++to 1.17624e-05
Heightened Def Con from 1.17624e-05 +++++++++++++++++to 1.17624e-05
Heightened Def Con from 1.17624e-05 +++++++++++++++++to 1.17624e-05
Heightened Def Con from 1.17624e-05 +++++++++++++++++to 1.17624e-05
Heightened Def Con from 1.17624e-05 +++++++++++++++++to 1.17624e-05
Heightened Def Con from 1.17624e-05 +++++++++++++++++to 1.17624e-05
Heightened Def Con from 1.17624e-05 +++++++++++++++++to 1.17624e-05
Heightened Def Con from 1.17624e-05 +++++++++++++++++to 1.17624e-05
Heightened Def Con from 1.17624e-05 +++++++++++++++++to 1.17624e-05
Heightened Def Con from 1.17624e-05 +++++++++++++++++to 1.17624e-05
Heightened Def Con from 1.17624e-05 +++++++++++++++++to 1.17624e-05
Heightened Def Con from 1.17624e-05 +++++++++++++++++to 1.17624e-05
Heightened Def Con from 1.17624e-05 +++++++++++++++++to 1.17624e-05
Heightened Def Con from 1.17624e-05 +++++++++++++++++to 1.17624e-05
Heightened Def Con from 1.17624e-05 +++++++++++++++++to 1.17624e-05
Heightened Def Con from 1.17624e-05 +++++++++++++++++to 1.17624e-05
Heightened Def Con from 1.17624e-05 +++++++++++++++++to 1.17624e-05
Heightened Def Con from 1.17624e-05 +++++++++++++++++to 1.17624e-05
Heightened Def Con from 1.17624e-05 +++++++++++++++++to 1.17624e-05
Heightened Def Con from 1.17624e-05 +++++++++++++++++to 1.17624e-05
Heightened Def Con from 1.17624e-05 +++++++++++++++++to 1.17624e-05
Heightened Def Con from 1.17624e-05 +++++++++++++++++to 1.17624e-05
Heightened Def Con from 1.17624e-05 +++++++++++++++++to 1.17624e-05
Heightened Def Con from 1.17624e-05 +++++++++++++++++to 1.17624e-05
Heightened Def Con from 1.17624e-05 +++++++++++++++++to 1.17624e-05
Heightened Def Con from 1.17624e-05 +++++++++++++++++to 1.17624e-05
Heightened Def Con from 1.17624e-05 +++++++++++++++++to 1.17624e-05
Heightened Def Con from 1.17624e-05 +++++++++++++++++to 1.17624e-05
Heightened Def Con from 1.17624e-05 +++++++++++++++++to 1.17624e-05
Heightened Def Con from 1.17624e-05 +++++++++++++++++to 1.17624e-05
Heightened Def Con from 1.17624e-05 +++++++++++++++++to 1.17624e-05
Heightened Def Con from 1.17624e-05 +++++++++++++++++to 1.17624e-05
Heightened Def Con from 1.17624e-05 +++++++++++++++++to 1.17624e-05
Heightened Def Con from 1.17624e-05 +++++++++++++++++to 1.17624e-05
Heightened Def Con from 1.17624e-05 +++++++++++++++++to 1.17624e-05
Heightened Def Con from 1.17624e-05 +++++++++++++++++to 1.17624e-05
Heightened Def Con from 1.17624e-05 +++++++++++++++++to 1.17624e-05
Heightened Def Con from 1.17624e-05 +++++++++++++++++to 1.17624e-05
Heightened Def Con from 1.17624e-05 +++++++++++++++++to 1.17624e-05
Heightened Def Con from 1.17624e-05 +++++++++++++++++to 1.17624e-05
Heightened Def Con from 1.17624e-05 +++++++++++++++++to 1.17624e-05
Heightened Def Con from 1.17624e-05 +++++++++++++++++to 1.17624e-05
Heightened Def Con from 1.17624e-05 +++++++++++++++++to 1.17624e-05
Heightened Def Con from 1.17624e-05 +++++++++++++++++to 1.17624e-05
Heightened Def Con from 1.17624e-05 +++++++++++++++++to 1.17624e-05
Heightened Def Con from 1.17624e-05 +++++++++++++++++to 1.17624e-05
Heightened Def Con from 1.17624e-05 +++++++++++++++++to 1.17624e-05
Heightened Def Con from 1.17624e-05 +++++++++++++++++to 1.17624e-05
Heightened Def Con from 1.17624e-05 +++++++++++++++++to 1.17624e-05
Heightened Def Con from 1.17624e-05 +++++++++++++++++to 1.17624e-05
Heightened Def Con from 1.17624e-05 +++++++++++++++++to 1.17624e-05
Heightened Def Con from 1.17624e-05 +++++++++++++++++to 1.17624e-05
Heightened Def Con from 1.17624e-05 +++++++++++++++++to 1.17624e-05
Heightened Def Con from 1.17624e-05 +++++++++++++++++to 1.17624e-05
Heightened Def Con from 1.17624e-05 +++++++++++++++++to 1.17624e-05
Heightened Def Con from 1.17624e-05 +++++++++++++++++to 1.17624e-05
Heightened Def Con from 1.17624e-05 +++++++++++++++++to 1.17624e-05
Heightened Def Con from 1.17624e-05 +++++++++++++++++to 1.17624e-05
Heightened Def Con from 1.17624e-05 +++++++++++++++++to 1.17624e-05
Heightened Def Con from 1.17624e-05 +++++++++++++++++to 1.17624e-05
Heightened Def Con from 1.17624e-05 +++++++++++++++++to 1.17624e-05
Heightened Def Con from 1.17624e-05 +++++++++++++++++to 1.17624e-05
Heightened Def Con from 1.17624e-05 +++++++++++++++++to 1.17624e-05
Heightened Def Con from 1.17624e-05 +++++++++++++++++to 1.17624e-05
Heightened Def Con from 1.17624e-05 +++++++++++++++++to 1.17624e-05
Heightened Def Con from 1.17624e-05 +++++++++++++++++to 1.17624e-05
Heightened Def Con from 1.17624e-05 +++++++++++++++++to 1.17624e-05
Heightened Def Con from 1.17624e-05 +++++++++++++++++to 1.17624e-05
Heightened Def Con from 1.17624e-05 +++++++++++++++++to 1.17624e-05
Heightened Def Con from 1.17624e-05 +++++++++++++++++to 1.17624e-05
Heightened Def Con from 1.17624e-05 +++++++++++++++++to 1.17624e-05
Heightened Def Con from 1.17624e-05 +++++++++++++++++to 1.17624e-05
Heightened Def Con from 1.17624e-05 +++++++++++++++++to 1.17624e-05
Heightened Def Con from 1.17624e-05 +++++++++++++++++to 1.17624e-05
Heightened Def Con from 1.17624e-05 +++++++++++++++++to 1.17624e-05
Heightened Def Con from 1.17624e-05 +++++++++++++++++to 1.17624e-05
Heightened Def Con from 1.17624e-05 +++++++++++++++++to 1.17624e-05
Heightened Def Con from 1.17624e-05 +++++++++++++++++to 1.17624e-05
Heightened Def Con from 1.17624e-05 +++++++++++++++++to 1.17624e-05
Heightened Def Con from 1.17624e-05 +++++++++++++++++to 1.17624e-05
Heightened Def Con from 1.17624e-05 +++++++++++++++++to 1.17624e-05
Heightened Def Con from 1.17624e-05 +++++++++++++++++to 1.17624e-05
Heightened Def Con from 1.17624e-05 +++++++++++++++++to 1.17624e-05
Heightened Def Con from 1.17624e-05 +++++++++++++++++to 1.17624e-05
Heightened Def Con from 1.17624e-05 +++++++++++++++++to 1.17624e-05
Heightened Def Con from 1.17624e-05 +++++++++++++++++to 1.17624e-05
Heightened Def Con from 1.17624e-05 +++++++++++++++++to 1.17624e-05
Heightened Def Con from 1.17624e-05 +++++++++++++++++to 1.17624e-05
Heightened Def Con from 1.17624e-05 +++++++++++++++++to 1.17624e-05
Heightened Def Con from 1.17624e-05 +++++++++++++++++to 1.17624e-05
Heightened Def Con from 1.17624e-05 +++++++++++++++++to 1.17624e-05
Heightened Def Con from 1.17624e-05 +++++++++++++++++to 1.17624e-05
Heightened Def Con from 1.17624e-05 +++++++++++++++++to 1.17624e-05
[...]
Heightened Def Con from 1.17624e-05 +++++++++++++++++to 1.17624e-05
Heightened Def Con from 1.17624e-05 +++++++++++++++++to 1.17624e-05
Heightened Def Con from 1.17624e-05 +++++++++++++++++to 1.17624e-05
Heightened Def Con from 1.17624e-05 +++++++++++++++++to 1.17624e-05
Heightened Def Con from 1.17624e-05 +++++++++++++++++to 1.17624e-05
Heightened Def Con from 1.17624e-05 +++++++++++++++++to 1.17624e-05
Heightened Def Con from 1.17624e-05 +++++++++++++++++to 1.17624e-05
Heightened Def Con from 1.17624e-05 +++++++++++++++++to 1.17624e-05
Heightened Def Con from 1.17624e-05 +++++++++++++++++to 1.17624e-05
Heightened Def Con from 1.17624e-05 +++++++++++++++++to 1.17624e-05
Heightened Def Con from 1.17624e-05 +++++++++++++++++to 1.17624e-05
Heightened Def Con from 1.17624e-05 +++++++++++++++++to 1.17624e-05
Heightened Def Con from 1.17624e-05 +++++++++++++++++to 1.17624e-05
Heightened Def Con from 1.17624e-05 +++++++++++++++++to 1.17624e-05
Heightened Def Con from 1.17624e-05 +++++++++++++++++to 1.17624e-05
Heightened Def Con from 1.17624e-05 +++++++++++++++++to 1.17624e-05
Heightened Def Con from 1.17624e-05 +++++++++++++++++to 1.17624e-05
Heightened Def Con from 1.17624e-05 +++++++++++++++++to 1.17624e-05
Heightened Def Con from 1.17624e-05 +++++++++++++++++to 1.17624e-05
Heightened Def Con from 1.17624e-05 +++++++++++++++++to 1.17624e-05
Heightened Def Con from 1.17624e-05 +++++++++++++++++to 1.17624e-05
Heightened Def Con from 1.17624e-05 +++++++++++++++++to 1.17624e-05
Heightened Def Con from 1.17624e-05 +++++++++++++++++to 1.17624e-05
Heightened Def Con from 1.17624e-05 +++++++++++++++++to 1.17624e-05
Heightened Def Con from 1.17624e-05 +++++++++++++++++to 1.17624e-05
Heightened Def Con from 1.17624e-05 +++++++++++++++++to 1.17624e-05
Heightened Def Con from 1.17624e-05 +++++++++++++++++to 1.17624e-05
Heightened Def Con from 1.17624e-05 +++++++++++++++++to 1.17624e-05
Heightened Def Con from 1.17624e-05 +++++++++++++++++to 1.17624e-05
Heightened Def Con from 1.17624e-05 +++++++++++++++++to 1.17624e-05
Heightened Def Con from 1.17624e-05 +++++++++++++++++to 1.17624e-05
Heightened Def Con from 1.17624e-05 +++++++++++++++++to 1.17624e-05
Heightened Def Con from 1.17624e-05 +++++++++++++++++to 1.17624e-05
Heightened Def Con from 1.17624e-05 +++++++++++++++++to 1.17624e-05
Heightened Def Con from 1.17624e-05 +++++++++++++++++to 1.17624e-05
Heightened Def Con from 1.17624e-05 +++++++++++++++++to 1.17624e-05
Heightened Def Con from 1.17624e-05 +++++++++++++++++to 1.17624e-05
Heightened Def Con from 1.17624e-05 +++++++++++++++++to 1.17624e-05
Heightened Def Con from 1.17624e-05 +++++++++++++++++to 1.17624e-05
Heightened Def Con from 1.17624e-05 +++++++++++++++++to 1.17624e-05
Heightened Def Con from 1.17624e-05 +++++++++++++++++to 1.17624e-05
Heightened Def Con from 1.17624e-05 +++++++++++++++++to 1.17624e-05
Heightened Def Con from 1.17624e-05 +++++++++++++++++to 1.17624e-05
Heightened Def Con from 1.17624e-05 +++++++++++++++++to 1.17624e-05
Heightened Def Con from 1.17624e-05 +++++++++++++++++to 1.17624e-05
Heightened Def Con from 1.17624e-05 +++++++++++++++++to 1.17624e-05
Heightened Def Con from 1.17624e-05 +++++++++++++++++to 1.17624e-05
Heightened Def Con from 1.17624e-05 +++++++++++++++++to 1.17624e-05
Heightened Def Con from 1.17624e-05 +++++++++++++++++to 1.17624e-05
Heightened Def Con from 1.17624e-05 +++++++++++++++++to 1.17624e-05
Heightened Def Con from 1.17624e-05 +++++++++++++++++to 1.17624e-05
Heightened Def Con from 1.17624e-05 +++++++++++++++++to 1.17624e-05
Heightened Def Con from 1.17624e-05 +++++++++++++++++to 1.17624e-05
Heightened Def Con from 1.17624e-05 +++++++++++++++++to 1.17624e-05
Heightened Def Con from 1.17624e-05 +++++++++++++++++to 1.17624e-05
Heightened Def Con from 1.17624e-05 +++++++++++++++++to 1.17624e-05
Heightened Def Con from 1.17624e-05 +++++++++++++++++to 1.17624e-05
Heightened Def Con from 1.17624e-05 +++++++++++++++++to 1.17624e-05
Heightened Def Con from 1.17624e-05 +++++++++++++++++to 1.17624e-05
Heightened Def Con from 1.17624e-05 +++++++++++++++++to 1.17624e-05
Heightened Def Con from 1.17624e-05 +++++++++++++++++to 1.17624e-05
Heightened Def Con from 1.17624e-05 +++++++++++++++++to 1.17624e-05
Heightened Def Con from 1.17624e-05 +++++++++++++++++to 1.17624e-05
Heightened Def Con from 1.17624e-05 +++++++++++++++++to 1.17624e-05
Heightened Def Con from 1.17624e-05 +++++++++++++++++to 1.17624e-05
Heightened Def Con from 1.17624e-05 +++++++++++++++++to 1.17624e-05
Heightened Def Con from 1.17624e-05 +++++++++++++++++to 1.17624e-05
Heightened Def Con from 1.17624e-05 +++++++++++++++++to 1.17624e-05
Heightened Def Con from 1.17624e-05 +++++++++++++++++to 1.17624e-05
Heightened Def Con from 1.17624e-05 +++++++++++++++++to 1.17624e-05
Heightened Def Con from 1.17624e-05 +++++++++++++++++to 1.17624e-05
Heightened Def Con from 1.17624e-05 +++++++++++++++++to 1.17624e-05
Heightened Def Con from 1.17624e-05 +++++++++++++++++to 1.17624e-05
Heightened Def Con from 1.17624e-05 +++++++++++++++++to 1.17624e-05
Heightened Def Con from 1.17624e-05 +++++++++++++++++to 1.17624e-05
Heightened Def Con from 1.17624e-05 +++++++++++++++++to 1.17624e-05
Heightened Def Con from 1.17624e-05 +++++++++++++++++to 1.17624e-05
Heightened Def Con from 1.17624e-05 +++++++++++++++++to 1.17624e-05
Heightened Def Con from 1.17624e-05 +++++++++++++++++to 1.17624e-05
Heightened Def Con from 1.17624e-05 +++++++++++++++++to 1.17624e-05
Heightened Def Con from 1.17624e-05 +++++++++++++++++to 1.17624e-05
Heightened Def Con from 1.17624e-05 +++++++++++++++++to 1.17624e-05
Heightened Def Con from 1.17624e-05 +++++++++++++++++to 1.17624e-05
Heightened Def Con from 1.17624e-05 +++++++++++++++++to 1.17624e-05
Heightened Def Con from 1.17624e-05 +++++++++++++++++to 1.17624e-05
Heightened Def Con from 1.17624e-05 +++++++++++++++++to 1.17624e-05
Heightened Def Con from 1.17624e-05 +++++++++++++++++to 1.17624e-05
Heightened Def Con from 1.17624e-05 +++++++++++++++++to 1.17624e-05
Heightened Def Con from 1.17624e-05 +++++++++++++++++to 1.17624e-05
Heightened Def Con from 1.17624e-05 +++++++++++++++++to 1.17624e-05
Heightened Def Con from 1.17624e-05 +++++++++++++++++to 1.17624e-05
Heightened Def Con from 1.17624e-05 +++++++++++++++++to 1.17624e-05
Heightened Def Con from 1.17624e-05 +++++++++++++++++to 1.17624e-05
Heightened Def Con from 1.17624e-05 +++++++++++++++++to 1.17624e-05
Heightened Def Con from 1.17624e-05 +++++++++++++++++to 1.17624e-05
Heightened Def Con from 1.17624e-05 +++++++++++++++++to 1.17624e-05
Heightened Def Con from 1.17624e-05 +++++++++++++++++to 1.17624e-05
Heightened Def Con from 1.17624e-05 +++++++++++++++++to 1.17624e-05
Heightened Def Con from 1.17624e-05 +++++++++++++++++to 1.17624e-05
Heightened Def Con from 1.17624e-05 +++++++++++++++++to 1.17624e-05
Heightened Def Con from 1.17624e-05 +++++++++++++++++to 1.17624e-05
Heightened Def Con from 1.17624e-05 +++++++++++++++++to 1.17624e-05
Heightened Def Con from 1.17624e-05 +++++++++++++++++to 1.17624e-05
Heightened Def Con from 1.17624e-05 +++++++++++++++++to 1.17624e-05
Heightened Def Con from 1.17624e-05 +++++++++++++++++to 1.17624e-05
Heightened Def Con from 1.17624e-05 +++++++++++++++++to 1.17624e-05
Heightened Def Con from 1.17624e-05 +++++++++++++++++to 1.17624e-05
Heightened Def Con from 1.17624e-05 +++++++++++++++++to 1.17624e-05
Heightened Def Con from 1.17624e-05 +++++++++++++++++to 1.17624e-05
Heightened Def Con from 1.17624e-05 +++++++++++++++++to 1.17624e-05
Heightened Def Con from 1.17624e-05 +++++++++++++++++to 1.17624e-05
Heightened Def Con from 1.17624e-05 +++++++++++++++++to 1.17624e-05
Heightened Def Con from 1.17624e-05 +++++++++++++++++to 1.17624e-05
Heightened Def Con from 1.17624e-05 +++++++++++++++++to 1.17624e-05
Heightened Def Con from 1.17624e-05 +++++++++++++++++to 1.17624e-05
Heightened Def Con from 1.17624e-05 +++++++++++++++++to 1.17624e-05
Heightened Def Con from 1.17624e-05 +++++++++++++++++to 1.17624e-05
Heightened Def Con from 1.17624e-05 +++++++++++++++++to 1.17624e-05
Heightened Def Con from 1.17624e-05 +++++++++++++++++to 1.17624e-05
Heightened Def Con from 1.17624e-05 +++++++++++++++++to 1.17624e-05
Heightened Def Con from 1.17624e-05 +++++++++++++++++to 1.17624e-05
Heightened Def Con from 1.17624e-05 +++++++++++++++++to 1.17624e-05
Heightened Def Con from 1.17624e-05 +++++++++++++++++to 1.17624e-05
Heightened Def Con from 1.17624e-05 +++++++++++++++++to 1.17624e-05
Heightened Def Con from 1.17624e-05 +++++++++++++++++to 1.17624e-05
Heightened Def Con from 1.17624e-05 +++++++++++++++++to 1.17624e-05
Heightened Def Con from 1.17624e-05 +++++++++++++++++to 1.17624e-05
Heightened Def Con from 1.17624e-05 +++++++++++++++++to 1.17624e-05
Heightened Def Con from 1.17624e-05 +++++++++++++++++to 1.17624e-05
Heightened Def Con from 1.17624e-05 +++++++++++++++++to 1.17624e-05
Heightened Def Con from 1.17624e-05 +++++++++++++++++to 1.17624e-05
Heightened Def Con from 1.17624e-05 +++++++++++++++++to 1.17624e-05
Heightened Def Con from 1.17624e-05 +++++++++++++++++to 1.17624e-05
Heightened Def Con from 1.17624e-05 +++++++++++++++++to 1.17624e-05
Heightened Def Con from 1.17624e-05 +++++++++++++++++to 1.17624e-05
Heightened Def Con from 1.17624e-05 +++++++++++++++++to 1.17624e-05
Heightened Def Con from 1.17624e-05 +++++++++++++++++to 1.17624e-05
Heightened Def Con from 1.17624e-05 +++++++++++++++++to 1.17624e-05
Heightened Def Con from 1.17624e-05 +++++++++++++++++to 1.17624e-05
Heightened Def Con from 1.17624e-05 +++++++++++++++++to 1.17624e-05
Heightened Def Con from 1.17624e-05 +++++++++++++++++to 1.17624e-05
Heightened Def Con from 1.17624e-05 +++++++++++++++++to 1.17624e-05
Heightened Def Con from 1.17624e-05 +++++++++++++++++to 1.17624e-05
Heightened Def Con from 1.17624e-05 +++++++++++++++++to 1.17624e-05
Heightened Def Con from 1.17624e-05 +++++++++++++++++to 1.17624e-05
Heightened Def Con from 1.17624e-05 +++++++++++++++++to 1.17624e-05
Heightened Def Con from 1.17624e-05 +++++++++++++++++to 1.17624e-05
Heightened Def Con from 1.17624e-05 +++++++++++++++++to 1.17624e-05
Heightened Def Con from 1.17624e-05 +++++++++++++++++to 1.17624e-05
Heightened Def Con from 1.17624e-05 +++++++++++++++++to 1.17624e-05
Heightened Def Con from 1.17624e-05 +++++++++++++++++to 1.17624e-05
Heightened Def Con from 1.17624e-05 +++++++++++++++++to 1.17624e-05
Heightened Def Con from 1.17624e-05 +++++++++++++++++to 1.17624e-05
Heightened Def Con from 1.17624e-05 +++++++++++++++++to 1.17624e-05
Heightened Def Con from 1.17624e-05 +++++++++++++++++to 1.17624e-05
Heightened Def Con from 1.17624e-05 +++++++++++++++++to 1.17624e-05
Heightened Def Con from 1.17624e-05 +++++++++++++++++to 1.17624e-05
Heightened Def Con from 1.17624e-05 +++++++++++++++++to 1.17624e-05
Heightened Def Con from 1.17624e-05 +++++++++++++++++to 1.17624e-05
Heightened Def Con from 1.17624e-05 +++++++++++++++++to 1.17624e-05
Heightened Def Con from 1.17624e-05 +++++++++++++++++to 1.17624e-05
Heightened Def Con from 1.17624e-05 +++++++++++++++++to 1.17624e-05
Heightened Def Con from 1.17624e-05 +++++++++++++++++to 1.17624e-05
Heightened Def Con from 1.17624e-05 +++++++++++++++++to 1.17624e-05
Heightened Def Con from 1.17624e-05 +++++++++++++++++to 1.17624e-05
Heightened Def Con from 1.17624e-05 +++++++++++++++++to 1.17624e-05
Heightened Def Con from 1.17624e-05 +++++++++++++++++to 1.17624e-05
Heightened Def Con from 1.17624e-05 +++++++++++++++++to 1.17624e-05
Heightened Def Con from 1.17624e-05 +++++++++++++++++to 1.17624e-05
Heightened Def Con from 1.17624e-05 +++++++++++++++++to 1.17624e-05
Heightened Def Con from 1.17624e-05 +++++++++++++++++to 1.17624e-05
Heightened Def Con from 1.17624e-05 +++++++++++++++++to 1.17624e-05
Heightened Def Con from 1.17624e-05 +++++++++++++++++to 1.17624e-05
Heightened Def Con from 1.17624e-05 +++++++++++++++++to 1.17624e-05
Heightened Def Con from 1.17624e-05 +++++++++++++++++to 1.17624e-05
Heightened Def Con from 1.17624e-05 +++++++++++++++++to 1.17624e-05
Heightened Def Con from 1.17624e-05 +++++++++++++++++to 1.17624e-05
Heightened Def Con from 1.17624e-05 +++++++++++++++++to 1.17624e-05
Heightened Def Con from 1.17624e-05 +++++++++++++++++to 1.17624e-05
Heightened Def Con from 1.17624e-05 +++++++++++++++++to 1.17624e-05
Heightened Def Con from 1.17624e-05 +++++++++++++++++to 1.17624e-05
Heightened Def Con from 1.17624e-05 +++++++++++++++++to 1.17624e-05
Heightened Def Con from 1.17624e-05 +++++++++++++++++to 1.17624e-05
Heightened Def Con from 1.17624e-05 +++++++++++++++++to 1.17624e-05
Heightened Def Con from 1.17624e-05 +++++++++++++++++to 1.17624e-05
Heightened Def Con from 1.17624e-05 +++++++++++++++++to 1.17624e-05
Heightened Def Con from 1.17624e-05 +++++++++++++++++to 1.17624e-05
Heightened Def Con from 1.17624e-05 +++++++++++++++++to 1.17624e-05
Heightened Def Con from 1.17624e-05 +++++++++++++++++to 1.17624e-05
Heightened Def Con from 1.17624e-05 +++++++++++++++++to 1.17624e-05
Heightened Def Con from 1.17624e-05 +++++++++++++++++to 1.17624e-05
Heightened Def Con from 1.17624e-05 +++++++++++++++++to 1.17624e-05
Heightened Def Con from 1.17624e-05 +++++++++++++++++to 1.17624e-05
Heightened Def Con from 1.17624e-05 +++++++++++++++++to 1.17624e-05
Heightened Def Con from 1.17624e-05 +++++++++++++++++to 1.17624e-05
Heightened Def Con from 1.17624e-05 +++++++++++++++++to 1.17624e-05
Heightened Def Con from 1.17624e-05 +++++++++++++++++to 1.17624e-05
Heightened Def Con from 1.17624e-05 +++++++++++++++++to 1.17624e-05
Heightened Def Con from 1.17624e-05 +++++++++++++++++to 1.17624e-05
Heightened Def Con from 1.17624e-05 +++++++++++++++++to 1.17624e-05
Heightened Def Con from 1.17624e-05 +++++++++++++++++to 1.17624e-05
Heightened Def Con from 1.17624e-05 +++++++++++++++++to 1.17624e-05
Heightened Def Con from 1.17624e-05 +++++++++++++++++to 1.17624e-05
Heightened Def Con from 1.17624e-05 +++++++++++++++++to 1.17624e-05
Heightened Def Con from 1.17624e-05 +++++++++++++++++to 1.17624e-05
Heightened Def Con from 1.17624e-05 +++++++++++++++++to 1.17624e-05
Heightened Def Con from 1.17624e-05 +++++++++++++++++to 1.17624e-05
Heightened Def Con from 1.17624e-05 +++++++++++++++++to 1.17624e-05
Heightened Def Con from 1.17624e-05 +++++++++++++++++to 1.17624e-05
Heightened Def Con from 1.17624e-05 +++++++++++++++++to 1.17624e-05
Heightened Def Con from 1.17624e-05 +++++++++++++++++to 1.17624e-05
Heightened Def Con from 1.17624e-05 +++++++++++++++++to 1.17624e-05
Heightened Def Con from 1.17624e-05 +++++++++++++++++to 1.17624e-05
Heightened Def Con from 1.17624e-05 +++++++++++++++++to 1.17624e-05
Heightened Def Con from 1.17624e-05 +++++++++++++++++to 1.17624e-05
Heightened Def Con from 1.17624e-05 +++++++++++++++++to 1.17624e-05
Heightened Def Con from 1.17624e-05 +++++++++++++++++to 1.17624e-05
Heightened Def Con from 1.17624e-05 +++++++++++++++++to 1.17624e-05
Heightened Def Con from 1.17624e-05 +++++++++++++++++to 1.17624e-05
Heightened Def Con from 1.17624e-05 +++++++++++++++++to 1.17624e-05
Heightened Def Con from 1.17624e-05 +++++++++++++++++to 1.17624e-05
Heightened Def Con from 1.17624e-05 +++++++++++++++++to 1.17624e-05
Heightened Def Con from 1.17624e-05 +++++++++++++++++to 1.17624e-05
Heightened Def Con from 1.17624e-05 +++++++++++++++++to 1.17624e-05
Heightened Def Con from 1.17624e-05 +++++++++++++++++to 1.17624e-05
Heightened Def Con from 1.17624e-05 +++++++++++++++++to 1.17624e-05
Heightened Def Con from 1.17624e-05 +++++++++++++++++to 1.17624e-05
Heightened Def Con from 1.17624e-05 +++++++++++++++++to 1.17624e-05
Heightened Def Con from 1.17624e-05 +++++++++++++++++to 1.17624e-05
Heightened Def Con from 1.17624e-05 +++++++++++++++++to 1.17624e-05
Heightened Def Con from 1.17624e-05 +++++++++++++++++to 1.17624e-05
Heightened Def Con from 1.17624e-05 +++++++++++++++++to 1.17624e-05
Heightened Def Con from 1.17624e-05 +++++++++++++++++to 1.17624e-05
Heightened Def Con from 1.17624e-05 +++++++++++++++++to 1.17624e-05
Heightened Def Con from 1.17624e-05 +++++++++++++++++to 1.17624e-05
Heightened Def Con from 1.17624e-05 +++++++++++++++++to 1.17624e-05
Heightened Def Con from 1.17624e-05 +++++++++++++++++to 1.17624e-05
Heightened Def Con from 1.17624e-05 +++++++++++++++++to 1.17624e-05
Heightened Def Con from 1.17624e-05 +++++++++++++++++to 1.17624e-05
Heightened Def Con from 1.17624e-05 +++++++++++++++++to 1.17624e-05
Heightened Def Con from 1.17624e-05 +++++++++++++++++to 1.17624e-05
Heightened Def Con from 1.17624e-05 +++++++++++++++++to 1.17624e-05
Heightened Def Con from 1.17624e-05 +++++++++++++++++to 1.17624e-05
Heightened Def Con from 1.17624e-05 +++++++++++++++++to 1.17624e-05
Heightened Def Con from 1.17624e-05 +++++++++++++++++to 1.17624e-05
Heightened Def Con from 1.17624e-05 +++++++++++++++++to 1.17624e-05
Heightened Def Con from 1.17624e-05 +++++++++++++++++to 1.17624e-05
Heightened Def Con from 1.17624e-05 +++++++++++++++++to 1.17624e-05
Heightened Def Con from 1.17624e-05 +++++++++++++++++to 1.17624e-05
Heightened Def Con from 1.17624e-05 +++++++++++++++++to 1.17624e-05
Heightened Def Con from 1.17624e-05 +++++++++++++++++to 1.17624e-05
Heightened Def Con from 1.17624e-05 +++++++++++++++++to 1.17624e-05
Heightened Def Con from 1.17624e-05 +++++++++++++++++to 1.17624e-05
Heightened Def Con from 1.17624e-05 +++++++++++++++++to 1.17624e-05
Heightened Def Con from 1.17624e-05 +++++++++++++++++to 1.17624e-05
Heightened Def Con from 1.17624e-05 +++++++++++++++++to 1.17624e-05
Heightened Def Con from 1.17624e-05 +++++++++++++++++to 1.17624e-05
Heightened Def Con from 1.17624e-05 +++++++++++++++++to 1.17624e-05
Heightened Def Con from 1.17624e-05 +++++++++++++++++to 1.17624e-05
Heightened Def Con from 1.17624e-05 +++++++++++++++++to 1.17624e-05
Heightened Def Con from 1.17624e-05 +++++++++++++++++to 1.17624e-05
Heightened Def Con from 1.17624e-05 +++++++++++++++++to 1.17624e-05
Heightened Def Con from 1.17624e-05 +++++++++++++++++to 1.17624e-05
Heightened Def Con from 1.17624e-05 +++++++++++++++++to 1.17624e-05
Heightened Def Con from 1.17624e-05 +++++++++++++++++to 1.17624e-05
Heightened Def Con from 1.17624e-05 +++++++++++++++++to 1.17624e-05
Heightened Def Con from 1.17624e-05 +++++++++++++++++to 1.17624e-05
Heightened Def Con from 1.17624e-05 +++++++++++++++++to 1.17624e-05
Heightened Def Con from 1.17624e-05 +++++++++++++++++to 1.17624e-05
Heightened Def Con from 1.17624e-05 +++++++++++++++++to 1.17624e-05
Heightened Def Con from 1.17624e-05 +++++++++++++++++to 1.17624e-05
Heightened Def Con from 1.17624e-05 +++++++++++++++++to 1.17624e-05
Heightened Def Con from 1.17624e-05 +++++++++++++++++to 1.17624e-05
Heightened Def Con from 1.17624e-05 +++++++++++++++++to 1.17624e-05
Heightened Def Con from 1.17624e-05 +++++++++++++++++to 1.17624e-05
Heightened Def Con from 1.17624e-05 +++++++++++++++++to 1.17624e-05
Heightened Def Con from 1.17624e-05 +++++++++++++++++to 1.17624e-05
Heightened Def Con from 1.17624e-05 +++++++++++++++++to 1.17624e-05
Heightened Def Con from 1.17624e-05 +++++++++++++++++to 1.17624e-05
Heightened Def Con from 1.17624e-05 +++++++++++++++++to 1.17624e-05
Heightened Def Con from 1.17624e-05 +++++++++++++++++to 1.17624e-05
Heightened Def Con from 1.17624e-05 +++++++++++++++++to 1.17624e-05
Heightened Def Con from 1.17624e-05 +++++++++++++++++to 1.17624e-05
Heightened Def Con from 1.17624e-05 +++++++++++++++++to 1.17624e-05
Heightened Def Con from 1.17624e-05 +++++++++++++++++to 1.17624e-05
Heightened Def Con from 1.17624e-05 +++++++++++++++++to 1.17624e-05
Heightened Def Con from 1.17624e-05 +++++++++++++++++to 1.17624e-05
Heightened Def Con from 1.17624e-05 +++++++++++++++++to 1.17624e-05
Heightened Def Con from 1.17624e-05 +++++++++++++++++to 1.17624e-05
Heightened Def Con from 1.17624e-05 +++++++++++++++++to 1.17624e-05
Heightened Def Con from 1.17624e-05 +++++++++++++++++to 1.17624e-05
Heightened Def Con from 1.17624e-05 +++++++++++++++++to 1.17624e-05
Heightened Def Con from 1.17624e-05 +++++++++to 1.17624e-05
Total elapsed time: 48.234 seconds.

