LTspice 24.0.9 for Windows
Circuit: * C:\Users\Akane\Desktop\Assignments\Year 4\ELEC4123\Elective\Draft2.asc
Start Time: Tue Apr 14 18:34:32 2026
solver = Normal
Maximum thread count: 12
tnom = 27
temp = 27
method = modified trap
WARNING: Node NC_01 is floating.

WARNING: Less than two connections to node nc_01.  This node is used by a:u1:2.
WARNING: Less than two connections to node nc_08.  This node is used by d:u1:3.
Direct Newton iteration for .op point succeeded.
Heightened Def Con from 5.00977e-08 to 5.00977e-08
Heightened Def Con from 5.00977e-08 ++++++++++++to 5.00977e-08
Heightened Def Con from 5.00977e-08 ++++++++++++to 5.00977e-08
Heightened Def Con from 5.00977e-08 ++++++++++++to 5.00977e-08
Heightened Def Con from 5.00977e-08 ++++++++++++to 5.00977e-08
Heightened Def Con from 5.00977e-08 ++++++++++++to 5.00977e-08
Heightened Def Con from 5.00977e-08 ++++++++++++to 5.00977e-08
Heightened Def Con from 5.00977e-08 ++++++++++++to 5.00977e-08
Heightened Def Con from 5.00977e-08 ++++++++++++to 5.00977e-08
Heightened Def Con from 5.00977e-08 ++++++++++++to 5.00977e-08
Heightened Def Con from 5.00977e-08 ++++++++++++to 5.00977e-08
Heightened Def Con from 5.00977e-08 ++++++++++++to 5.00977e-08
Heightened Def Con from 5.00977e-08 ++++++++++++to 5.00977e-08
Heightened Def Con from 5.00977e-08 ++++++++++++to 5.00977e-08
Heightened Def Con from 5.00977e-08 ++++++++++++to 5.00977e-08
Heightened Def Con from 5.00977e-08 ++++++++++++to 5.00977e-08
Heightened Def Con from 5.00977e-08 ++++++++++++to 5.00977e-08
Heightened Def Con from 5.00977e-08 ++++++++++++to 5.00977e-08
Heightened Def Con from 5.00977e-08 ++++++++++++to 5.00977e-08
Heightened Def Con from 5.00977e-08 ++++++++++++to 5.00977e-08
Heightened Def Con from 5.00977e-08 ++++++++++++to 5.00977e-08
Heightened Def Con from 5.00977e-08 ++++++++++++++++++++to 5.00977e-08
Heightened Def Con from 5.00977e-08 ++++++++++++++++++++to 5.00977e-08
Heightened Def Con from 5.00977e-08 ++++++++++++++++++++to 5.00977e-08
Heightened Def Con from 5.00977e-08 +++++++++++++++++++to 5.00977e-08
Heightened Def Con from 5.00977e-08 ++++++++++++++++to 5.00977e-08
Heightened Def Con from 5.00977e-08 ++++++++++++++++++++to 5.00977e-08
Heightened Def Con from 5.00977e-08 ++++++++++++++++++++to 5.00977e-08
Heightened Def Con from 5.00977e-08 +++++++++++++++++++to 5.00977e-08
Heightened Def Con from 5.00977e-08 +++++++++++++++++to 5.00977e-08
Heightened Def Con from 5.00977e-08 +++++++++++++to 5.00977e-08
Heightened Def Con from 5.00977e-08 +++++++++++++to 5.00977e-08
Heightened Def Con from 5.00977e-08 +++++++++++++to 5.00977e-08
Heightened Def Con from 5.00977e-08 +++++++++++++to 5.00977e-08
Heightened Def Con from 5.00977e-08 +++++++++++++to 5.00977e-08
Heightened Def Con from 5.00977e-08 +++++++++++++to 5.00977e-08
Heightened Def Con from 5.00977e-08 +++++++++++++to 5.00977e-08
Heightened Def Con from 5.00977e-08 +++++++++++++to 5.00977e-08
Heightened Def Con from 5.00977e-08 +++++++++++++to 5.00977e-08
Heightened Def Con from 5.00977e-08 +++++++++++++to 5.00977e-08
Heightened Def Con from 5.00977e-08 +++++++++++++to 5.00977e-08
Heightened Def Con from 5.00977e-08 +++++++++++++to 5.00977e-08
Heightened Def Con from 5.00977e-08 +++++++++++++to 5.00977e-08
Heightened Def Con from 5.00977e-08 +++++++++++++to 5.00977e-08
Heightened Def Con from 5.00977e-08 +++++++++++++to 5.00977e-08
Heightened Def Con from 5.00977e-08 +++++++++++++to 5.00977e-08
Heightened Def Con from 5.00977e-08 +++++++++++++to 5.00977e-08
Heightened Def Con from 5.00977e-08 +++++++++++++to 5.00977e-08
Heightened Def Con from 5.00977e-08 +++++++++++++to 5.00977e-08
Heightened Def Con from 5.00977e-08 +++++++++++++to 5.00977e-08
Heightened Def Con from 5.00977e-08 +++++++++++++to 5.00977e-08
Heightened Def Con from 5.00977e-08 +++++++++++++to 5.00977e-08
Heightened Def Con from 5.00977e-08 +++++++++++++to 5.00977e-08
Heightened Def Con from 5.00977e-08 +++++++++++++to 5.00977e-08
Heightened Def Con from 5.00977e-08 +++++++++++++to 5.00977e-08
Heightened Def Con from 5.00977e-08 +++++++++++++to 5.00977e-08
Heightened Def Con from 5.00977e-08 +++++++++++++to 5.00977e-08
Heightened Def Con from 5.00977e-08 +++++++++++++to 5.00977e-08
Heightened Def Con from 5.00977e-08 +++++++++++++to 5.00977e-08
Heightened Def Con from 5.00977e-08 +++++++++++++to 5.00977e-08
Heightened Def Con from 5.00977e-08 +++++++++++++to 5.00977e-08
Heightened Def Con from 5.00977e-08 +++++++++++++to 5.00977e-08
Heightened Def Con from 5.00977e-08 +++++++++++++to 5.00977e-08
Heightened Def Con from 5.00977e-08 +++++++++++++to 5.00977e-08
Heightened Def Con from 5.00977e-08 +++++++++++++to 5.00977e-08
Heightened Def Con from 5.00977e-08 +++++++++++++to 5.00977e-08
Heightened Def Con from 5.00977e-08 +++++++++++++to 5.00977e-08
Heightened Def Con from 5.00977e-08 +++++++++++++to 5.00977e-08
Heightened Def Con from 5.00977e-08 +++++++++++++to 5.00977e-08
Heightened Def Con from 5.00977e-08 +++++++++++++to 5.00977e-08
Heightened Def Con from 5.00977e-08 +++++++++++++to 5.00977e-08
Heightened Def Con from 5.00977e-08 +++++++++++++to 5.00977e-08
Heightened Def Con from 5.00977e-08 +++++++++++++to 5.00977e-08
Heightened Def Con from 5.00977e-08 ++++++++++++++++++++++to 5.10977e-08
Total elapsed time: 1.190 seconds.

