LTspice 24.0.9 for Windows
Circuit: * C:\Users\Akane\Desktop\Assignments\Year 4\ELEC4123\Elective\PLL_ModulateAttempt1.asc
Start Time: Tue Apr 14 18:33:41 2026
solver = Normal
Maximum thread count: 12
tnom = 27
temp = 27
method = modified trap
WARNING: Node NC_01 is floating.

WARNING: Less than two connections to node nc_01.  This node is used by a:u2:2.
WARNING: Less than two connections to node nc_08.  This node is used by d:u2:3.
Direct Newton iteration for .op point succeeded.
Total elapsed time: 0.762 seconds.

