LTspice 24.0.9 for Windows
Circuit: * C:\Users\Akane\Desktop\Assignments\Year 4\ELEC4123\Elective\PLL_ModulateAttempt2.asc
Start Time: Fri May  1 16:44:38 2026
solver = Normal
Maximum thread count: 12
tnom = 27
temp = 27
method = modified trap
v2: Removing PWL point (0.0001,0)
v2: Removing PWL point (0.0003,1)
v2: Removing PWL point (0.0005,0)
v2: Removing PWL point (0.000899,1)
v2: Removing PWL point (0.0013,0)
v2: Removing PWL point (0.0018,1)
v2: Removing PWL point (0.002,0)
v2: Removing PWL point (0.0023,0)
WARNING: Node NC_01 is floating.

WARNING: Less than two connections to node nc_01.  This node is used by a:u1:2.
WARNING: Less than two connections to node nc_07.  This node is used by d:u1:3.
WARNING: Less than two connections to node vff.  This node is used by b1.
WARNING: Less than two connections to node bs.  This node is used by v2.
Direct Newton iteration failed to find .op point.  (Use ".option noopiter" to skip.)
Starting Gmin stepping
Gmin = 10
Gmin = 1.07374
vernier = 0.5
vernier = 0.25
vernier = 0.125
vernier = 0.0625
vernier = 0.03125
Gmin = 1.0412
vernier = 0.015625
vernier = 0.0078125
Gmin = 1.0132
vernier = 0.00390625
vernier = 0.00195312
Gmin = 1.00827
vernier = 0.00260417
vernier = 0.00130208
Gmin = 1.00515
vernier = 0.000651042
vernier = 0.000868055
vernier = 0.000434028
Gmin = 1.00434
vernier = 0.000578703
vernier = 0.000434027
Gmin = 1.00339
Gmin = 0
Gmin stepping failed

Starting source stepping with srcstepmethod=0
Source Step = 3.0303%
Source Step = 33.3333%
Source Step = 63.6364%
Source Step = 93.9394%
Source stepping succeeded in finding the operating point.

Heightened Def Con from 5.00098e-08 +++++++++++++++++++++++++to 5.11348e-08
Total elapsed time: 0.540 seconds.

